ckt5_Curr_Elem.Txt

CIRCUIT ELEMENT CURRENTS

(Currents into element from indicated bus)

Power Delivery Elements

  Bus                          Phase    Magnitude, A     Angle      (Real)   +j  (Imag)

ELEMENT = "Vsource.SOURCE"
SOURCEBUS                          1            107.9 /_  155.1 =    -97.872 +j    45.415
SOURCEBUS                          2           106.65 /_   32.6 =     89.806 +j    57.527
SOURCEBUS                          3           103.26 /_  -85.5 =      8.066 +j   -102.94
------------
SOURCEBUS                          0            107.9 /_  -24.9 =     97.872 +j   -45.415
SOURCEBUS                          0           106.65 /_ -147.4 =    -89.806 +j   -57.527
SOURCEBUS                          0           103.26 /_   94.5 =     -8.066 +j    102.94

ELEMENT = "Line.MDV201_CONNECTOR"
_MDV_SUB_1_LSB                     1           959.79 /_  -55.4 =     545.39 +j   -789.77
_MDV_SUB_1_LSB                     2             1020 /_ -176.4 =    -1017.9 +j    -64.35
_MDV_SUB_1_LSB                     3           950.66 /_   64.0 =     416.55 +j    854.54
------------
MDV201                             1           959.79 /_  124.6 =    -545.39 +j    789.77
MDV201                             2             1020 /_    3.6 =     1017.9 +j     64.35
MDV201                             3           950.66 /_ -116.0 =    -416.55 +j   -854.54

ELEMENT = "Line.MDV201_HN_1_275_A94744"
94743                              1           2.2306 /_  -55.7 =     1.2554 +j   -1.8437
------------
94744                              1           2.2309 /_  124.2 =    -1.2545 +j    1.8447

ELEMENT = "Line.MDV201_HN_2_466_C62235"
62244                              3           50.572 /_   63.5 =     22.528 +j    45.277
------------
62235                              3           50.572 /_ -116.5 =    -22.529 +j   -45.277

ELEMENT = "Line.MDV201_DA_8_780_A1144234"
1144235                            1           5.2174 /_  -57.6 =     2.7994 +j   -4.4028
------------
1144234                            1           5.2179 /_  122.4 =     -2.798 +j    4.4043

ELEMENT = "Line.MDV201_1160486ELB-1_SW"
39754                              2           15.443 /_ -178.6 =    -15.438 +j  -0.38254
------------
MDV201_1160486ELB_INT              2           15.443 /_    1.4 =     15.438 +j   0.38254

ELEMENT = "Line.MDV201_1160486ELB"
MDV201_1160486ELB_INT              2           15.443 /_ -178.6 =    -15.438 +j  -0.38255
------------
1160486                            2           15.443 /_    1.4 =     15.438 +j   0.38255

ELEMENT = "Line.MDV201_HN_2P009_B1160473"
1160476                            2           56.101 /_ -178.8 =     -56.09 +j    -1.133
------------
1160473                            2           56.104 /_    1.1 =     56.092 +j    1.1234

ELEMENT = "Line.MDV201_HN_2_088_ABC8164"
8163                               1           206.94 /_  -57.2 =     112.15 +j   -173.92
8163                               2           157.52 /_ -175.3 =    -156.99 +j   -12.885
8163                               3            320.2 /_   63.0 =     145.39 +j    285.29
------------
8164                               1           206.94 /_  122.8 =    -112.15 +j    173.92
8164                               2           157.52 /_    4.7 =     156.99 +j    12.882
8164                               3            320.2 /_ -117.0 =    -145.39 +j   -285.29

ELEMENT = "Line.MDV201_HN_2_319_B39610"
103730                             2             4.16 /_ -176.4 =    -4.1519 +j  -0.25979
------------
39610                              2           4.1601 /_    3.6 =      4.152 +j   0.25947

ELEMENT = "Line.MDV201_HN_2_417_A842"
835                                1           37.875 /_  -53.4 =     22.579 +j   -30.409
------------
842                                1           37.876 /_  126.6 =    -22.579 +j     30.41

ELEMENT = "Line.MDV201_HN_2_941_B39760"
39775                              2           13.805 /_ -178.2 =    -13.798 +j  -0.43373
------------
39760                              2           13.805 /_    1.8 =     13.799 +j   0.43277

ELEMENT = "Line.MDV201_1160480ELB-1_SW"
15004                              2           42.463 /_ -178.8 =    -42.454 +j  -0.87582
------------
MDV201_1160480ELB_INT              2           42.463 /_    1.2 =     42.454 +j   0.87582

ELEMENT = "Line.MDV201_1160480ELB"
MDV201_1160480ELB_INT              2           42.463 /_ -178.8 =    -42.454 +j  -0.87582
------------
1160480                            2           42.463 /_    1.2 =     42.454 +j   0.87582

ELEMENT = "Line.C_1P034_SW"
1160492                            1           26.525 /_  -56.5 =     14.641 +j   -22.118
------------
MDV201_8088ELB_INT                 1           26.525 /_  123.5 =    -14.641 +j    22.118

ELEMENT = "Line.MDV201_8088ELB"
MDV201_8088ELB_INT                 1           26.525 /_  -56.5 =     14.641 +j   -22.118
------------
8088                               1           26.525 /_  123.5 =    -14.641 +j    22.118

ELEMENT = "Line.MDV201_HN_2_499_ABC834"
829                                1            286.2 /_  -55.5 =     161.99 +j   -235.95
829                                2           367.16 /_ -177.2 =    -366.73 +j   -17.685
829                                3           289.77 /_   64.3 =     125.76 +j    261.06
------------
834                                1            286.2 /_  124.5 =    -161.99 +j    235.95
834                                2           367.16 /_    2.8 =     366.73 +j    17.683
834                                3           289.77 /_ -115.7 =    -125.76 +j   -261.06

ELEMENT = "Line.MDV201_1160478ELB-1_SW"
15005                              2            32.66 /_ -178.5 =    -32.649 +j  -0.87042
------------
MDV201_1160478ELB_INT              2            32.66 /_    1.5 =     32.649 +j   0.87042

ELEMENT = "Line.MDV201_1160478ELB"
MDV201_1160478ELB_INT              2            32.66 /_ -178.5 =    -32.649 +j  -0.87042
------------
1160478                            2            32.66 /_    1.5 =     32.649 +j   0.87042

ELEMENT = "Line.MDV201_HN_2_217_ABC8160"
44582                              1           206.94 /_  -57.2 =     112.15 +j   -173.91
44582                              2           170.23 /_ -175.2 =    -169.64 +j   -14.149
44582                              3           357.72 /_   63.2 =     161.38 +j    319.25
------------
8160                               1           206.94 /_  122.8 =    -112.15 +j    173.91
8160                               2           170.23 /_    4.8 =     169.64 +j    14.149
8160                               3           357.72 /_ -116.8 =    -161.38 +j   -319.25

ELEMENT = "Line.MDV201_HN_2_942_C89791"
89783                              3           38.195 /_   62.6 =     17.598 +j      33.9
------------
89791                              3           38.196 /_ -117.4 =    -17.599 +j   -33.899

ELEMENT = "Line.MDV201_99422FUSE"
6584                               1           51.797 /_  -57.0 =     28.237 +j   -43.424
------------
99422                              1           51.797 /_  123.0 =    -28.237 +j    43.424

ELEMENT = "Line.MDV201_HN_2_140_ABC8124"
8113                               1           77.905 /_  -53.6 =     46.211 +j   -62.719
8113                               2           5.6535 /_ -173.1 =    -5.6124 +j  -0.68032
8113                               3           34.955 /_   65.7 =     14.391 +j    31.855
------------
8124                               1           77.905 /_  126.4 =     -46.21 +j     62.72
8124                               2           5.6538 /_    6.9 =     5.6129 +j   0.67881
8124                               3           34.955 /_ -114.3 =    -14.393 +j   -31.855

ELEMENT = "Line.MDV201_HN_2_818_ABC63707"
14880                              1           49.234 /_  -53.8 =     29.087 +j   -39.723
14880                              2           232.72 /_ -177.6 =     -232.5 +j   -9.9007
14880                              3            60.56 /_   65.0 =     25.568 +j    54.898
------------
63707                              1           49.234 /_  126.2 =    -29.086 +j    39.724
63707                              2           232.72 /_    2.4 =     232.51 +j    9.8992
63707                              3           60.561 /_ -115.0 =    -25.569 +j   -54.898

ELEMENT = "Line.MDV201_DA_8_731_C74450"
74449                              3           6.1541 /_   62.5 =     2.8446 +j    5.4572
------------
74450                              3           6.1542 /_ -117.5 =    -2.8453 +j    -5.457

ELEMENT = "Line.MDV201_100494FUSE"
14989                              2            6.529 /_ -173.9 =    -6.4915 +j  -0.69908
------------
100494                             2            6.529 /_    6.1 =     6.4915 +j   0.69903

ELEMENT = "Line.MDV201_107110FUSE"
63683                              1           98.953 /_  -55.4 =     56.206 +j    -81.44
63683                              3           49.355 /_   64.2 =     21.445 +j    44.453
------------
107110                             1           98.953 /_  124.6 =    -56.206 +j     81.44
107110                             3           49.355 /_ -115.8 =    -21.445 +j   -44.453

ELEMENT = "Line.MDV201_HN_2_477_C8121"
1144242                            3           28.851 /_   65.5 =     11.975 +j    26.249
------------
8121                               3           28.852 /_ -114.5 =    -11.976 +j   -26.249

ELEMENT = "Line.MDV201_HN_2_876_C63671"
63668                              3           38.388 /_   63.2 =     17.302 +j    34.268
------------
63671                              3           38.388 /_ -116.8 =    -17.303 +j   -34.268

ELEMENT = "Line.MDV201_HN_2_671_C89781"
89784                              3           93.128 /_   62.3 =      43.32 +j    82.439
------------
89781                              3           93.128 /_ -117.7 =    -43.321 +j   -82.438

ELEMENT = "Line.MDV201_DA_8_930_A39751"
39734                              1           16.737 /_  -58.1 =     8.8556 +j   -14.203
------------
39751                              1           16.738 /_  121.9 =    -8.8548 +j    14.204

ELEMENT = "Line.MDV201_HN_2_394_ABC63658"
63657                              1           639.21 /_  -55.0 =     366.61 +j   -523.63
63657                              2           810.83 /_ -176.8 =    -809.53 +j   -45.812
63657                              3           593.01 /_   64.5 =     255.22 +j    535.28
------------
63658                              1           639.21 /_  125.0 =    -366.61 +j    523.63
63658                              2           810.83 /_    3.2 =     809.53 +j    45.811
63658                              3           593.01 /_ -115.5 =    -255.22 +j   -535.28

ELEMENT = "Line.MDV201_DA_8_687_B74448"
74445                              2           70.795 /_ -175.4 =    -70.564 +j   -5.7045
------------
74448                              2           70.795 /_    4.6 =     70.565 +j    5.7037

ELEMENT = "Line.MDV201_1012643FUSE"
1012641                            3           2.0566 /_   66.3 =    0.82595 +j    1.8835
------------
1012643                            3           2.0566 /_ -113.7 =   -0.82599 +j   -1.8835

ELEMENT = "Line.MDV201_HN_1_238_A39569"
39570                              1           6.1437 /_  -55.4 =     3.4881 +j   -5.0575
------------
39569                              1            6.144 /_  124.6 =    -3.4874 +j    5.0583

ELEMENT = "Line.MDV201_14869FUSE"
14858                              1           44.697 /_  -55.3 =     25.468 +j   -36.732
------------
14869                              1           44.697 /_  124.7 =    -25.468 +j    36.732

ELEMENT = "Line.MDV201_HN_1_156_C89790"
89796                              3           6.0687 /_   65.4 =     2.5237 +j    5.5191
------------
89790                              3            6.069 /_ -114.6 =    -2.5253 +j   -5.5186

ELEMENT = "Line.MDV201_HN_2_318_C28272"
28271                              3           4.3738 /_   64.8 =     1.8617 +j    3.9578
------------
28272                              3           4.3741 /_ -115.2 =     -1.863 +j   -3.9575

ELEMENT = "Line.MDV201_C_1_140_ABC69477"
69478                              1        0.0055882 /_   51.5 =  0.0034784 +j 0.0043737
69478                              2           1.4535 /_ -171.6 =     -1.438 +j  -0.21148
69478                              3        0.0052886 /_  160.3 =  -0.0049804 +j 0.0017789
------------
69477                              1        0.0026146 /_ -128.5 =  -0.0016262 +j -0.0020473
69477                              2           1.4539 /_    8.2 =     1.4389 +j   0.20853
69477                              3        0.0024766 /_  -19.7 =   0.002332 +j -0.0008339

ELEMENT = "Line.MDV201_HN_2_948_C8176"
8175                               3            6.951 /_   61.9 =     3.2709 +j    6.1333
------------
8176                               3           6.9512 /_ -118.1 =    -3.2717 +j   -6.1331

ELEMENT = "Line.MDV201_1144230FUSE"
8184                               1           21.014 /_  -54.2 =     12.287 +j   -17.047
------------
1144230                            1           21.014 /_  125.8 =    -12.287 +j    17.047

ELEMENT = "Line.MDV201_HN_2_105_ABC39582"
39595                              1           75.177 /_  -54.5 =     43.618 +j   -61.229
39595                              2           195.69 /_ -177.2 =    -195.46 +j   -9.4547
39595                              3           116.41 /_   64.9 =     49.464 +j    105.37
------------
39582                              1           75.177 /_  125.5 =    -43.617 +j    61.231
39582                              2           195.69 /_    2.8 =     195.46 +j    9.4527
39582                              3           116.41 /_ -115.1 =    -49.466 +j   -105.37

ELEMENT = "Line.MDV201_DA_8_691_B46386"
46385                              2           42.065 /_ -175.5 =    -41.935 +j   -3.3019
------------
46386                              2           42.065 /_    4.5 =     41.936 +j    3.3012

ELEMENT = "Line.MDV201_HN_2_457_C62244"
106884                             3           54.491 /_   63.7 =     24.174 +j    48.835
------------
62244                              3           54.491 /_ -116.3 =    -24.175 +j   -48.835

ELEMENT = "Line.C_1P038_SW"
1160493                            1           54.216 /_  -56.2 =     30.137 +j   -45.069
------------
MDV201_8075ELB_INT                 1           54.216 /_  123.8 =    -30.137 +j    45.069

ELEMENT = "Line.MDV201_8075ELB"
MDV201_8075ELB_INT                 1           54.216 /_  -56.2 =     30.137 +j   -45.069
------------
8075                               1           54.216 /_  123.8 =    -30.137 +j    45.069

ELEMENT = "Line.C_1P032_SW"
69460                              1           7.0655 /_  -56.6 =     3.8888 +j    -5.899
------------
MDV201_107997ELB_INT               1           7.0655 /_  123.4 =    -3.8888 +j     5.899

ELEMENT = "Line.MDV201_107997ELB"
MDV201_107997ELB_INT               1           7.0655 /_  -56.6 =     3.8888 +j    -5.899
------------
107997                             1           7.0655 /_  123.4 =    -3.8888 +j     5.899

ELEMENT = "Line.MDV201_HN_2_949_C8180"
8176                               3           6.9512 /_   61.9 =     3.2717 +j    6.1331
------------
8180                               3           6.9513 /_ -118.1 =    -3.2721 +j    -6.133

ELEMENT = "Line.MDV201_C_1P024_A8100"
1160461                            1           51.558 /_  -55.9 =     28.869 +j   -42.718
------------
8100                               1           51.563 /_  124.0 =    -28.855 +j    42.734

ELEMENT = "Line.MDV201_HN_2_166_C33824"
39776                              3           20.221 /_   65.3 =     8.4391 +j    18.375
------------
33824                              3           20.221 /_ -114.7 =    -8.4402 +j   -18.375

ELEMENT = "Line.MDV201_HN_2_827_A14873"
1140227                            1           8.3369 /_  -54.3 =     4.8593 +j   -6.7743
------------
14873                              1            8.337 /_  125.6 =    -4.8588 +j    6.7748

ELEMENT = "Line.HN_2P017_SW"
1160488                            2           2.8396 /_ -176.9 =    -2.8355 +j  -0.15241
------------
MDV201_62249ELB_INT                2           2.8396 /_    3.1 =     2.8355 +j    0.1524

ELEMENT = "Line.MDV201_62249ELB"
MDV201_62249ELB_INT                2           2.8396 /_ -176.9 =    -2.8355 +j   -0.1524
------------
62249                              2           2.8396 /_    3.1 =     2.8355 +j    0.1524

ELEMENT = "Line.MDV201_HN_2_397_B63634"
107106                             2            46.24 /_ -175.1 =    -46.069 +j    -3.973
------------
63634                              2            46.24 /_    4.9 =     46.069 +j    3.9721

ELEMENT = "Line.MDV201_C_1P037_A1160467"
1160494                            1           47.569 /_  -56.2 =     26.478 +j   -39.519
------------
1160467                            1           47.571 /_  123.8 =    -26.473 +j    39.524

ELEMENT = "Line.MDV201_HN_2_280_A8185"
1144230                            1           3.8172 /_  -53.5 =      2.268 +j   -3.0704
------------
8185                               1           3.8174 /_  126.4 =    -2.2675 +j    3.0709

ELEMENT = "Line.MDV201_HN_2_794_ABC791"
796                                1           959.79 /_  -55.4 =     545.39 +j   -789.77
796                                2             1020 /_ -176.4 =    -1017.9 +j   -64.349
796                                3           950.67 /_   64.0 =     416.56 +j    854.54
------------
791                                1           959.79 /_  124.6 =    -545.39 +j    789.77
791                                2             1020 /_    3.6 =     1017.9 +j    64.347
791                                3           950.67 /_ -116.0 =    -416.56 +j   -854.54

ELEMENT = "Line.MDV201_HN_2_677_C62303"
62306                              3           13.383 /_   62.9 =     6.1026 +j     11.91
------------
62303                              3           13.383 /_ -117.1 =    -6.1037 +j    -11.91

ELEMENT = "Line.MDV201_100478FUSE"
14839                              3           2.2521 /_   65.2 =    0.94468 +j    2.0444
------------
100478                             3           2.2521 /_ -114.8 =   -0.94473 +j   -2.0444

ELEMENT = "Line.MDV201_HN_2_115_ABC58446"
58441                              1           23.427 /_  -53.2 =     14.031 +j   -18.761
58441                              2           12.405 /_ -175.0 =    -12.359 +j   -1.0705
58441                              3           74.853 /_   64.9 =     31.791 +j    67.766
------------
58446                              1           23.427 /_  126.8 =     -14.03 +j    18.762
58446                              2           12.405 /_    4.9 =     12.359 +j    1.0695
58446                              3           74.853 /_ -115.1 =    -31.792 +j   -67.766

ELEMENT = "Line.MDV201_HN_2_895_B52515"
112112                             2           34.269 /_ -177.7 =    -34.242 +j    -1.361
------------
52515                              2           34.269 /_    2.3 =     34.242 +j    1.3606

ELEMENT = "Line.MDV201_98795FUSE"
846                                1           1.8116 /_  -52.2 =       1.11 +j   -1.4317
846                                2           1.7967 /_ -172.8 =    -1.7825 +j  -0.22552
846                                3           1.8477 /_   67.7 =    0.70106 +j    1.7096
------------
98795                              1           1.8117 /_  127.8 =      -1.11 +j    1.4318
98795                              2           1.7967 /_    7.2 =     1.7825 +j   0.22544
98795                              3           1.8477 /_ -112.3 =   -0.70112 +j   -1.7096

ELEMENT = "Line.MDV201_HN_2_246_B39602"
39623                              2           13.722 /_ -178.1 =    -13.715 +j  -0.45277
------------
39602                              2           13.723 /_    1.9 =     13.715 +j   0.45161

ELEMENT = "Line.MDV201_DA_8_149_ABC56778"
56777                              1           18.314 /_  -56.1 =     10.206 +j   -15.206
56777                              2           99.348 /_ -175.1 =    -98.985 +j   -8.4879
56777                              3           104.34 /_   63.2 =     47.088 +j    93.114
------------
56778                              1           18.315 /_  123.9 =    -10.205 +j    15.208
56778                              2           99.348 /_    4.9 =     98.985 +j    8.4852
56778                              3           104.34 /_ -116.8 =     -47.09 +j   -93.114

ELEMENT = "Line.MDV201_HN_2_083_ABC62239"
44586                              1           206.94 /_  -57.2 =     112.15 +j   -173.92
44586                              2           133.86 /_ -175.3 =    -133.41 +j   -10.964
44586                              3           164.26 /_   63.3 =     73.784 +j    146.75
------------
62239                              1           206.94 /_  122.8 =    -112.15 +j    173.92
62239                              2           133.86 /_    4.7 =     133.41 +j    10.963
62239                              3           164.26 /_ -116.7 =    -73.785 +j   -146.75

ELEMENT = "Line.MDV201_DA_8_145_ABC46393"
46394                              1         0.001794 /_   51.0 =   0.001128 +j 0.0013949
46394                              2        0.0019916 /_  -73.8 =  0.00055721 +j -0.001912
46394                              3        0.0017879 /_  160.8 =  -0.0016881 +j 0.00058893
------------
46393                              1       1.855E-011 /_  168.7 =  -1.819E-011 +j 3.638E-012
46393                              2         1.5E-011 /_ -166.0 =  -1.4552E-011 +j -3.638E-012
46393                              3      1.4552E-011 /_    0.0 =  1.4552E-011 +j         0

ELEMENT = "Line.MDV201_HN_2_729_B28246"
1144254                            2           4.2051 /_ -173.8 =    -4.1808 +j  -0.45134
------------
28246                              2           4.2052 /_    6.2 =      4.181 +j   0.45089

ELEMENT = "Line.MDV201_HN_2_954_B39771"
14996                              2           11.119 /_ -176.1 =    -11.094 +j  -0.75398
------------
39771                              2           11.119 /_    3.9 =     11.094 +j   0.75318

ELEMENT = "Line.MDV201_108776FUSE"
74432                              1           4.8515 /_  -56.7 =     2.6647 +j   -4.0542
------------
108776                             1           4.8515 /_  123.3 =    -2.6647 +j    4.0542

ELEMENT = "Line.HN_2P028_SW"
1160489                            1            4.614 /_  -53.3 =     2.7573 +j   -3.6996
------------
MDV201_795ELB_INT                  1            4.614 /_  126.7 =    -2.7573 +j    3.6996

ELEMENT = "Line.MDV201_795ELB"
MDV201_795ELB_INT                  1            4.614 /_  -53.3 =     2.7573 +j   -3.6995
------------
795                                1            4.614 /_  126.7 =    -2.7573 +j    3.6995

ELEMENT = "Line.MDV201_1140227FUSE"
14879                              1           8.3369 /_  -54.3 =     4.8593 +j   -6.7743
------------
1140227                            1           8.3369 /_  125.7 =    -4.8593 +j    6.7743

ELEMENT = "Line.MDV201_HN_2_488_C8103"
8099                               3           21.177 /_   64.1 =     9.2615 +j    19.045
------------
8103                               3           21.177 /_ -115.9 =    -9.2622 +j   -19.045

ELEMENT = "Line.MDV201_DA_8_917_A56768"
1000983                            1           104.21 /_  -58.2 =     54.915 +j   -88.567
------------
56768                              1           104.21 /_  121.8 =    -54.914 +j    88.567

ELEMENT = "Line.MDV201_HN_2_029_ABC62262"
62265                              1           206.95 /_  -57.2 =     112.14 +j   -173.93
62265                              2           109.79 /_ -175.0 =    -109.38 +j   -9.5062
62265                              3           109.77 /_   63.1 =     49.616 +j    97.916
------------
62262                              1           206.95 /_  122.8 =    -112.14 +j    173.93
62262                              2           109.79 /_    5.0 =     109.38 +j    9.5046
62262                              3           109.77 /_ -116.9 =    -49.618 +j   -97.916

ELEMENT = "Line.MDV201_HN_2_955_B39752"
39771                              2           9.1925 /_ -176.1 =    -9.1714 +j  -0.62271
------------
39752                              2           9.1926 /_    3.9 =     9.1716 +j    0.6219

ELEMENT = "Line.MDV201_DA_8_215_B1017348"
1017350                            2           16.051 /_ -177.4 =    -16.034 +j  -0.73733
------------
1017348                            2           16.051 /_    2.6 =     16.034 +j   0.73547

ELEMENT = "Line.MDV201_DA_8_678_A56764"
56760                              1           15.458 /_  -57.0 =     8.4101 +j    -12.97
------------
56764                              1           15.459 /_  123.0 =    -8.4094 +j    12.971

ELEMENT = "Line.MDV201_HN_2_834_B39617"
39620                              2           19.233 /_ -177.1 =    -19.208 +j  -0.98977
------------
39617                              2           19.234 /_    2.9 =     19.208 +j    0.9888

ELEMENT = "Line.MDV201_HN_2_906_A39580"
39589                              1           4.7716 /_  -56.8 =     2.6136 +j   -3.9921
------------
39580                              1           4.7716 /_  123.2 =    -2.6134 +j    3.9924

ELEMENT = "Line.MDV201_DA_8_734_C74440"
74446                              3           20.984 /_   62.3 =     9.7697 +j    18.571
------------
74440                              3           20.984 /_ -117.7 =    -9.7703 +j   -18.571

ELEMENT = "Line.MDV201_DA_8_157_ABC58429"
58430                              1           9.3756 /_  -56.4 =     5.1909 +j   -7.8075
58430                              2           5.7405 /_ -173.1 =     -5.699 +j  -0.68887
58430                              3           102.62 /_   63.1 =     46.414 +j    91.522
------------
58429                              1           9.3762 /_  123.6 =    -5.1896 +j    7.8091
58429                              2           5.7409 /_    6.9 =     5.6997 +j   0.68677
58429                              3           102.62 /_ -116.9 =    -46.416 +j   -91.522

ELEMENT = "Line.MDV201_HN_2_605_A21655"
28213                              1            59.52 /_  -53.5 =     35.412 +j    -47.84
------------
21655                              1            59.52 /_  126.5 =    -35.411 +j    47.841

ELEMENT = "Line.MDV201_HN_2_636_AC28249"
63666                              1           90.425 /_  -55.3 =     51.422 +j   -74.381
63666                              3           10.934 /_   65.0 =     4.6225 +j    9.9093
------------
28249                              1           90.425 /_  124.7 =    -51.421 +j    74.381
28249                              3           10.935 /_ -115.0 =    -4.6238 +j   -9.9092

ELEMENT = "Line.MDV201_HN_2_705_ABC52524"
105409                             1           68.964 /_  -54.1 =     40.474 +j   -55.838
105409                             2           232.71 /_ -177.6 =     -232.5 +j   -9.9054
105409                             3            60.56 /_   65.0 =     25.564 +j      54.9
------------
52524                              1           68.964 /_  125.9 =    -40.473 +j    55.839
52524                              2           232.71 /_    2.4 =      232.5 +j    9.9044
52524                              3            60.56 /_ -115.0 =    -25.564 +j     -54.9

ELEMENT = "Line.MDV201_DA_8_928_A39733"
74424                              1           36.228 /_  -58.3 =     19.031 +j   -30.827
------------
39733                              1           36.228 /_  121.7 =     -19.03 +j    30.828

ELEMENT = "Line.MDV201_HN_2_383_ABC8113"
8111                               1           77.905 /_  -53.6 =     46.212 +j   -62.718
8111                               2           5.6533 /_ -173.1 =     -5.612 +j  -0.68183
8111                               3           34.955 /_   65.7 =      14.39 +j    31.855
------------
8113                               1           77.905 /_  126.4 =    -46.211 +j    62.719
8113                               2           5.6535 /_    6.9 =     5.6124 +j   0.68032
8113                               3           34.955 /_ -114.3 =    -14.391 +j   -31.855

ELEMENT = "Line.MDV201_HN_2_803_B837"
836                                2           67.203 /_ -177.3 =    -67.131 +j   -3.1122
------------
837                                2           67.203 /_    2.7 =     67.131 +j    3.1112

ELEMENT = "Line.SW-HN_2_793_SW"
1023346                            1           959.79 /_  -55.4 =     545.39 +j   -789.77
1023346                            2             1020 /_ -176.4 =    -1017.9 +j   -64.349
1023346                            3           950.67 /_   64.0 =     416.56 +j    854.54
------------
MDV201_796USD_INT                  1           959.79 /_  124.6 =    -545.39 +j    789.77
MDV201_796USD_INT                  2             1020 /_    3.6 =     1017.9 +j    64.349
MDV201_796USD_INT                  3           950.67 /_ -116.0 =    -416.56 +j   -854.54

ELEMENT = "Line.MDV201_796USD"
MDV201_796USD_INT                  1           959.79 /_  -55.4 =     545.39 +j   -789.77
MDV201_796USD_INT                  2             1020 /_ -176.4 =    -1017.9 +j   -64.349
MDV201_796USD_INT                  3           950.67 /_   64.0 =     416.56 +j    854.54
------------
796                                1           959.79 /_  124.6 =    -545.39 +j    789.77
796                                2             1020 /_    3.6 =     1017.9 +j    64.349
796                                3           950.67 /_ -116.0 =    -416.56 +j   -854.54

ELEMENT = "Line.MDV201_HN_1_332_C28263"
28262                              3           2.0972 /_   64.3 =    0.91018 +j    1.8894
------------
28263                              3           2.0973 /_ -115.7 =   -0.91091 +j   -1.8892

ELEMENT = "Line.MDV201_HN_2_890_B52521"
52519                              2            13.45 /_ -177.3 =    -13.435 +j  -0.62777
------------
...