ckt5_EXP_ElemPowers.CSV
Element, Nterminals, Nconductors, P_1, Q_1, ...
"Vsource.source", 2, 3,   -2493.42,   -1153.92,    -2433.4,    -1272.5,   -2360.72,   -1161.23,          0,          0,          0,          0,          0,          0
"Line.mdv201_connector", 2, 3,    2356.41,    1016.14,    2573.68,    1039.67,    2317.73,    982.303,   -2356.41,   -1016.14,   -2573.68,   -1039.66,   -2317.73,   -982.302
"Line.mdv201_hn_1_275_a94744", 2, 1,      6.033,    2.45626,   -6.03293,   -2.46679
"Line.mdv201_hn_2_466_c62235", 2, 1,    128.253,    50.7804,   -128.242,   -50.7742
"Line.mdv201_da_8_780_a1144234", 2, 1,    16.3229,    6.72361,   -16.3222,   -6.73879
"Line.mdv201_1160486elb-1_sw", 2, 1,    47.2489,     16.879,   -47.2489,    -16.879
"Line.mdv201_1160486elb", 2, 1,    47.2489,     16.879,   -47.2489,    -16.879
"Line.mdv201_hn_2p009_b1160473", 2, 1,     178.95,     66.699,   -178.925,   -66.7653
"Line.mdv201_hn_2_088_abc8164", 2, 3,    567.202,    236.066,    387.739,    148.975,     833.96,    329.736,   -567.124,    -235.76,   -387.634,   -148.967,   -833.459,   -329.017
"Line.mdv201_hn_2_319_b39610", 2, 1,    10.1671,    3.85713,    -10.167,   -3.85965
"Line.mdv201_hn_2_417_a842", 2, 1,    81.7823,    34.7971,   -81.7745,   -34.7981
"Line.mdv201_hn_2_941_b39760", 2, 1,    36.3082,    13.1073,   -36.3062,   -13.1137
"Line.mdv201_1160480elb-1_sw", 2, 1,    135.271,    51.1063,   -135.271,   -51.1059
"Line.mdv201_1160480elb", 2, 1,    135.271,    51.1058,   -135.271,   -51.1058
"Line.c_1p034_sw", 2, 1,    71.9948,    29.1789,   -71.9947,   -29.1788
"Line.mdv201_8088elb", 2, 1,    71.9947,    29.1788,   -71.9947,   -29.1788
"Line.mdv201_hn_2_499_abc834", 2, 3,    710.828,    289.903,    934.609,    353.729,    672.876,    271.383,   -710.114,   -289.493,   -933.557,   -352.802,   -672.495,   -270.984
"Line.mdv201_1160478elb-1_sw", 2, 1,    99.1065,    36.6625,   -99.1063,   -36.6623
"Line.mdv201_1160478elb", 2, 1,    99.1063,    36.6622,   -99.1063,   -36.6622
"Line.mdv201_hn_2_217_abc8160", 2, 3,    567.327,    236.589,    417.265,    160.361,    918.363,     364.54,   -567.309,   -236.498,   -417.223,   -160.359,    -918.18,   -364.263
"Line.mdv201_hn_2_942_c89791", 2, 1,    105.051,    41.0418,   -105.037,   -41.0386
"Line.mdv201_99422fuse", 2, 1,    131.792,    53.9857,   -131.792,   -53.9856
"Line.mdv201_hn_2_140_abc8124", 2, 3,    144.936,    61.6249,    9.34126,     3.6255,     71.481,    29.0654,   -144.919,   -61.6123,   -9.34167,   -3.63791,   -71.4728,   -29.0745
"Line.mdv201_hn_2_818_abc63707", 2, 3,     104.27,    43.7321,    631.421,    240.102,    126.984,    52.0262,   -104.251,   -43.7561,   -631.203,   -239.764,   -127.006,   -52.0313
"Line.mdv201_da_8_731_c74450", 2, 1,    15.2581,    5.88589,   -15.2578,   -5.89202
"Line.mdv201_100494fuse", 2, 1,     8.1558,    3.11703,    -8.1558,   -3.11737
"Line.mdv201_107110fuse", 2, 2,     245.34,    102.579,    125.177,    50.3857,   -245.341,   -102.578,   -125.177,   -50.3859
"Line.mdv201_hn_2_477_c8121", 2, 1,    59.8273,    24.3194,   -59.8231,   -24.3232
"Line.mdv201_hn_2_876_c63671", 2, 1,    102.135,    40.6531,   -102.128,   -40.6515
"Line.mdv201_hn_2_671_c89781", 2, 1,    262.717,     102.62,   -262.657,   -102.564
"Line.mdv201_da_8_930_a39751", 2, 1,      49.67,    20.2001,   -49.6672,   -20.2066
"Line.mdv201_hn_2_394_abc63658", 2, 3,    1509.88,     629.62,    2057.68,    797.105,    1390.85,    569.168,   -1509.34,   -629.047,   -2057.19,   -795.294,   -1391.02,   -568.589
"Line.mdv201_da_8_687_b74448", 2, 1,    168.804,    64.7652,   -168.773,   -64.7487
"Line.mdv201_1012643fuse", 2, 1,    4.19494,    1.61393,   -4.19494,   -1.61429
"Line.mdv201_hn_1_238_a39569", 2, 1,    14.6936,    5.96623,   -14.6933,   -5.97472
"Line.mdv201_14869fuse", 2, 1,    104.976,    43.8358,   -104.976,   -43.8359
"Line.mdv201_hn_1_156_c89790", 2, 1,    12.2258,    4.94393,   -12.2256,   -4.95666
"Line.mdv201_hn_2_318_c28272", 2, 1,     9.9601,    4.06968,   -9.95993,   -4.07937
"Line.mdv201_c_1_140_abc69477", 2, 3, -0.0036154, -0.0431319,    0.60689,   0.219236, 0.00444893, -0.0410443, 0.00170364,  0.0201793,  -0.607336,  -0.243176, -0.0020905,  0.0192197
"Line.mdv201_hn_2_948_c8176", 2, 1,    20.3579,    7.90668,   -20.3575,   -7.91286
"Line.mdv201_1144230fuse", 2, 1,    47.3646,    19.8376,   -47.3646,   -19.8379
"Line.mdv201_hn_2_105_abc39582", 2, 3,    161.529,    66.2545,     459.16,    170.739,     233.64,    94.6901,   -161.486,   -66.2697,   -458.878,   -170.516,   -233.622,   -94.6538
"Line.mdv201_da_8_691_b46386", 2, 1,    102.295,    39.2109,   -102.284,   -39.2088
"Line.mdv201_hn_2_457_c62244", 2, 1,    135.916,    53.8613,   -135.906,   -53.8557
"Line.c_1p038_sw", 2, 1,    142.582,    57.6193,   -142.581,   -57.6188
"Line.mdv201_8075elb", 2, 1,    142.581,    57.6188,   -142.581,   -57.6188
"Line.c_1p032_sw", 2, 1,     20.512,    8.39173,    -20.512,   -8.39175
"Line.mdv201_107997elb", 2, 1,     20.512,    8.39169,    -20.512,   -8.39169
"Line.mdv201_hn_2_949_c8180", 2, 1,    20.3575,    7.91286,   -20.3574,   -7.91564
"Line.mdv201_c_1p024_a8100", 2, 1,    132.059,    53.2211,   -132.031,   -53.3729
"Line.mdv201_hn_2_166_c33824", 2, 1,    34.3841,     13.838,   -34.3813,   -13.8451
"Line.mdv201_hn_2_827_a14873", 2, 1,    18.2788,    7.71299,   -18.2785,   -7.71836
"Line.hn_2p017_sw", 2, 1,    9.86119,    3.79982,   -9.86119,   -3.79984
"Line.mdv201_62249elb", 2, 1,    9.86115,    3.79983,   -9.86115,   -3.79983
"Line.mdv201_hn_2_397_b63634", 2, 1,    107.122,    41.4044,   -107.108,   -41.4011
"Line.mdv201_c_1p037_a1160467", 2, 1,    124.353,    50.2051,   -124.345,   -50.2563
"Line.mdv201_hn_2_280_a8185", 2, 1,    7.09156,    2.95286,   -7.09149,   -2.95823
"Line.mdv201_hn_2_794_abc791", 2, 3,    2355.16,     1013.6,    2572.57,    1036.59,    2317.27,    979.781,   -2353.86,   -1010.72,    -2571.5,   -1033.08,   -2316.97,   -976.907
"Line.mdv201_hn_2_677_c62303", 2, 1,    35.7924,    14.0304,   -35.7912,   -14.0374
"Line.mdv201_100478fuse", 2, 1,    5.15354,    2.20204,   -5.15354,    -2.2024
"Line.mdv201_hn_2_115_abc58446", 2, 3,    38.2044,    15.9493,    21.6193,    8.17401,    150.004,    60.5584,   -38.2055,   -15.9562,   -21.6186,    -8.1829,   -149.987,   -60.5506
"Line.mdv201_hn_2_895_b52515", 2, 1,    87.5184,    32.3903,   -87.5139,   -32.3902
"Line.mdv201_98795fuse", 2, 3,    2.59762,     1.1182,    2.55695,    1.01668,    2.64208,    1.10301,   -2.59768,   -1.11867,   -2.55695,   -1.01726,   -2.64201,   -1.10349
"Line.mdv201_hn_2_246_b39602", 2, 1,    40.9467,    15.2715,   -40.9448,   -15.2789
"Line.mdv201_da_8_149_abc56778", 2, 3,    47.9068,    19.6619,    232.161,    89.0234,     247.56,    97.1131,   -47.9089,   -19.6846,    -232.09,   -88.9919,   -247.538,   -97.0389
"Line.mdv201_hn_2_083_abc62239", 2, 3,     566.91,    234.954,    328.358,    126.247,    402.406,    158.422,   -566.835,   -234.828,   -328.351,   -126.229,   -402.361,   -158.387
"Line.mdv201_da_8_145_abc46393", 2, 3, -0.00116466, -0.0138154, 5.37947E-006, -0.0154906, 0.00115928, -0.0138081, -8.20463E-011, -1.64544E-010, 1.07839E-010, 1.37664E-010, 1.74188E-011, 2.07169E-010
"Line.mdv201_hn_2_729_b28246", 2, 1,     9.2254,    3.63343,   -9.22535,     -3.637
"Line.mdv201_hn_2_954_b39771", 2, 1,    23.3934,    8.66719,   -23.3927,   -8.67318
"Line.mdv201_108776fuse", 2, 1,    13.5939,    5.76991,   -13.5939,   -5.77026
"Line.hn_2p028_sw", 2, 1,    10.9385,    4.88958,   -10.9385,    -4.8896
"Line.mdv201_795elb", 2, 1,    10.9384,    4.88958,   -10.9384,   -4.88958
"Line.mdv201_1140227fuse", 2, 1,    18.2788,    7.71264,   -18.2788,   -7.71299
"Line.mdv201_hn_2_488_c8103", 2, 1,    56.8874,    22.8405,   -56.8845,   -22.8437
"Line.mdv201_da_8_917_a56768", 2, 1,    316.012,    128.796,   -315.961,   -128.746
"Line.mdv201_hn_2_029_abc62262", 2, 3,    566.178,    233.831,    255.903,    98.4984,    266.238,    104.441,   -566.012,   -233.567,   -255.912,   -98.4788,   -266.192,   -104.435
"Line.mdv201_hn_2_955_b39752", 2, 1,    19.0921,    7.04151,   -19.0916,   -7.04774
"Line.mdv201_da_8_215_b1017348", 2, 1,    41.3609,     15.069,   -41.3573,   -15.0804
"Line.mdv201_da_8_678_a56764", 2, 1,    40.4962,    16.5862,   -40.4939,   -16.5923
"Line.mdv201_hn_2_834_b39617", 2, 1,    50.3326,    18.9583,   -50.3303,   -18.9637
"Line.mdv201_hn_2_906_a39580", 2, 1,     14.385,    5.83208,   -14.3849,   -5.83463
"Line.mdv201_da_8_734_c74440", 2, 1,    54.1113,    20.8696,   -54.1087,   -20.8725
"Line.mdv201_da_8_157_abc58429", 2, 3,    25.5216,    10.3897,    10.5208,      3.973,    245.054,    95.5913,   -25.5259,   -10.4057,     -10.52,   -3.99115,   -245.021,   -95.5263
"Line.mdv201_hn_2_605_a21655", 2, 1,    106.751,    45.4738,   -106.732,    -45.469
"Line.mdv201_hn_2_636_ac28249", 2, 2,    224.367,    93.8323,    25.7975,    10.4089,   -224.316,   -93.7863,   -25.7969,   -10.4202
"Line.mdv201_hn_2_705_abc52524", 2, 3,     151.77,    63.6467,    632.066,    241.158,    126.915,    52.0056,   -151.747,   -63.6634,   -631.927,   -240.906,   -126.931,   -52.0123
"Line.mdv201_da_8_928_a39733", 2, 1,    109.794,    44.5812,    -109.78,   -44.5758
"Line.mdv201_hn_2_383_abc8113", 2, 3,    144.953,    61.6374,    9.34085,     3.6131,    71.4893,    29.0563,   -144.936,   -61.6249,   -9.34126,    -3.6255,    -71.481,   -29.0654
"Line.mdv201_hn_2_803_b837", 2, 1,    188.374,    70.9004,   -188.343,   -70.8744
"Line.sw-hn_2_793_sw", 2, 3,    2355.29,    1013.81,    2572.71,    1036.83,    2317.38,    979.984,   -2355.17,   -1013.69,   -2572.57,   -1036.69,   -2317.26,   -979.865
"Line.mdv201_796usd", 2, 3,    2355.17,    1013.69,    2572.57,    1036.69,    2317.26,    979.865,   -2355.16,    -1013.6,   -2572.57,   -1036.59,   -2317.27,   -979.781
"Line.mdv201_hn_1_332_c28263", 2, 1,    4.81268,    1.93186,   -4.81265,    -1.9377
"Line.mdv201_hn_2_890_b52521", 2, 1,    31.0666,    11.4934,   -31.0649,   -11.5015
"Line.mdv201_hn_2_377_abc28196", 2, 3,    5.10957,    2.19321,    6.78595,    2.66886,    4.74045,    1.94632,   -5.11038,   -2.20455,   -6.78594,   -2.68134,   -4.73956,    -1.9578
"Line.mdv201_hn_1_331_c28262", 2, 1,    4.81271,    1.92312,   -4.81268,   -1.93186
"Line.mdv201_hn_2_628_c52531", 2, 1,    28.0388,    11.1352,    -28.038,   -11.1429
"Line.mdv201_hn_2_964_a14870", 2, 1,    104.976,    43.8359,   -104.954,   -43.8312
"Line.mdv201_da_8_200_c46399", 2, 1,    197.725,    77.0667,    -197.68,   -77.0469
"Line.mdv201_106895fuse", 2, 1,    7.38439,    2.86854,   -7.38439,   -2.86889
"Line.hn_2p054_sw", 2, 1, 3.93532E-006, -6.7185E-006, -3.9362E-006, -1.45839E-005
"Line.mdv201_1163443elb", 2, 1,          0,          0,          0,          0
"Line.mdv201_da_8_142_abc6584", 2, 3,    500.498,    204.911,    250.912,    96.4357,    260.931,    102.404,   -500.354,   -204.687,   -250.915,   -96.4145,   -260.885,   -102.393
"Line.mdv201_1144249fuse", 2, 1,    127.259,     51.999,   -127.259,   -51.9989
"Line.mdv201_hn_2_965_a63726", 2, 1,    87.8995,    36.7135,   -87.8866,   -36.7135
"Line.mdv201_c_1_410_a8131", 2, 1,    33.7416,    14.4895,   -33.7401,   -14.4958
"Line.mdv201_hn_2_463_c62234", 2, 1,    84.3296,    33.3459,   -84.3239,   -33.3468
"Line.mdv201_hn_2_133_abc8083", 2, 3,    607.863,    247.121,    932.643,    351.996,    233.758,    94.7806,   -607.563,   -247.004,   -932.223,   -351.486,   -233.766,   -94.7895
"Line.mdv201_hn_2_840_b52518", 2, 1,    290.118,    107.708,   -290.034,   -107.627
"Line.mdv201_hn_2_808_abc783", 2, 3,    2350.77,    1004.47,    2569.01,    1024.84,    2316.52,    970.413,   -2349.39,    -1001.9,   -2567.91,   -1021.21,   -2316.42,   -967.646
"Line.mdv201_hn_2_608_a8133", 2, 1,    3.42858,    1.50068,   -3.42857,   -1.50591
"Line.mdv201_c_1p032_1160490", 2, 1, -8.09194E-006, -6.03589E-005, 8.09194E-006, 6.03589E-005
"Line.mdv201_hn_2_077_c28274", 2, 1,    10.0635,    4.16557,   -10.0633,   -4.17535
"Line.mdv201_hn_2_711_a63676", 2, 1,    29.3309,    12.4362,   -29.3302,   -12.4405
"Line.mdv201_hn_2_923_c28266", 2, 1,    6.45452,     2.5517,   -6.45449,   -2.55552
"Line.mdv201_hn_21041_c39773", 2, 1,    7.65779,    3.06203,   -7.65771,   -3.07438
"Line.mdv201_hn_2_644_a28238", 2, 1,    97.7395,     40.918,   -97.7309,   -40.9166
"Line.mdv201_1144260fuse", 2, 1,    353.297,    133.106,   -353.297,   -133.103
"Line.mdv201_hn_2_539_c8098", 2, 1,    26.4522,    10.7653,   -26.4515,   -10.7705
"Line.mdv201_hn_2_800_b850", 2, 1,    113.352,    42.6049,   -113.343,   -42.6011
"Line.mdv201_hn_2_092_abc63711", 2, 3,    567.435,    237.102,    434.562,    167.105,    919.396,    366.123,   -567.358,    -236.74,   -434.377,   -167.081,   -918.666,   -365.002
"Line.mdv201_hn_2p014_b1160485", 2, 1,     73.864,     27.572,   -73.8609,   -27.6248
"Line.mdv201_c_1_412_a8128", 2, 1,    29.7543,    12.7642,   -29.7534,   -12.7692
"Line.mdv201_hn_2_533_a8117", 2, 1,    16.3775,    6.84013,   -16.3772,   -6.84651
"Line.mdv201_hn_2_970_a63710", 2, 1,    20.4673,    8.57361,   -20.4669,   -8.57956
"Line.mdv201_c_1_400_a21653", 2, 1,    92.6643,    39.4437,   -92.6524,   -39.4427
"Line.mdv201_hn_2_124_c63703", 2, 1,    25.6594,    10.5712,   -25.6567,   -10.5848
"Line.mdv201_106254fuse", 2, 1,    7.07795,    2.89083,   -7.07795,   -2.89117
"Line.mdv201_hn_1_380_c1012407", 2, 1,    17.3956,    6.87802,   -17.3953,   -6.88354
"Line.mdv201_hn_2_381_abc1010731", 2, 3,    144.989,    61.6668,    9.34001,    3.58134,    141.301,     57.165,   -144.976,   -61.6556,   -9.34035,   -3.59431,   -141.274,   -57.1594
"Line.mdv201_da_8_732_c74453", 2, 1,    74.6041,    28.8066,   -74.5961,   -28.8086
"Line.mdv201_da_8_144_abc6582", 2, 3,    514.426,    210.718,     250.91,    96.4467,    260.954,    102.411,   -514.357,    -210.61,   -250.913,   -96.4372,   -260.933,   -102.406
"Line.mdv201_hn_1_147_c1012412", 2, 1,    15.0702,    6.29449,   -15.0697,   -6.30204
"Line.mdv201_hn_2_846_b69620", 2, 1,    199.256,    73.8438,   -199.222,   -73.8145
"Line.mdv201_hn_2_814_abc14891", 2, 3,    673.127,    283.277,    463.208,    178.229,    922.887,    371.264,   -672.952,   -282.722,   -463.034,   -178.184,   -922.127,   -370.187
"Line.mdv201_da_8_868_b1103250", 2, 1, 7.14635E-011, -0.00596279, 3.19182E-011, -6.937E-011
"Line.mdv201_1017350fuse", 2, 1,    41.3609,    15.0687,   -41.3609,    -15.069
"Line.mdv201_hn_2_719_c14872", 2, 1,    44.8119,    18.2775,    -44.811,   -18.2805
"Line.mdv201_hn_2_930_b62301", 2, 1,    5.75802,    2.20652,   -5.75796,   -2.21642
"Line.mdv201_hn_2_407_b809", 2, 1,     137.02,    53.0842,   -136.995,   -53.0738
"Line.mdv201_hn_2_650_a28242", 2, 1,    26.8384,    11.2138,   -26.8377,   -11.2209
"Line.mdv201_da_8_492_abc74428", 2, 3,    44.6407,    18.3384,    202.393,    77.6815,    247.492,    96.9027,   -44.6421,   -18.3494,   -202.365,    -77.674,   -247.479,    -96.865
"Line.mdv201_hn_2_151_c14833", 2, 1,    113.101,    46.2567,   -113.055,   -46.2462
"Line.mdv201_hn_2_641_ac14893", 2, 2,    214.806,    89.6934,  -0.001104, -0.00767908,   -214.769,   -89.6617, 8.9506E-011, -2.18488E-010
"Line.mdv201_da_8_203_c46407", 2, 1,    173.839,    67.5818,   -173.754,   -67.5474
"Line.mdv201_hn_1_172_a94737", 2, 1,    6.42584,    2.63325,   -6.42574,   -2.64171
"Line.mdv201_hn_1_165_c89780", 2, 1,     12.225,    4.97002,   -12.2247,   -4.97827
"Line.mdv201_hn_2_127_c63708", 2, 1,    33.7659,    13.8768,   -33.7637,   -13.8827
"Line.mdv201_pb_0928_a1000987", 2, 1,    4.31921,    1.66403,   -4.31919,   -1.76173
"Line.mdv201_hn_2_128_abc28288", 2, 3, -0.000865969, -0.0116135,    21.5731,    8.15331,    130.443,    52.5356, -1.8152E-010, -2.21116E-010,   -21.5718,   -8.16664,   -130.425,   -52.5279
"Line.sw-hn_2_381_sw", 2, 3,    144.976,    61.6556,    9.34035,    3.59431,    141.274,    57.1594,   -144.975,   -61.6552,   -9.34035,   -3.59438,   -141.274,    -57.159
"Line.mdv201_1010732usd", 2, 3,    144.975,    61.6552,    9.34035,    3.59438,    141.274,     57.159,   -144.976,   -61.6552,   -9.34035,   -3.59497,   -141.274,   -57.1591
"Line.mdv201_1144262fuse", 2, 1,    116.692,    47.1488,   -116.692,   -47.1488
"Line.mdv201_c_1_138_abc1127424", 2, 3, -0.00170364, -0.0201793, -0.000386856, -0.0211261,  0.0020905, -0.0192197, 6.19101E-005, 0.000468508, 3.26214E-006, 0.000566297, -6.51755E-005, 0.000477619
"Line.mdv201_da_8_234_abc56762", 2, 3,    364.053,    148.638,     235.68,    90.4875,    260.818,    102.349,   -363.992,   -148.549,    -235.67,   -90.4728,   -260.784,   -102.327
"Line.mdv201_1144253fuse", 2, 1,    18.4675,    6.68981,   -18.4675,   -6.69014
"Line.mdv201_hn_2_120_a28281", 2, 1,    33.8893,    14.1726,   -33.8867,    -14.179
"Line.mdv201_hn_1_274_a94747", 2, 1,   0.392438,   0.210516,  -0.392437,   -0.21702
"Line.mdv201_hn_2_852_b39588", 2, 1,    61.0346,     22.461,    -61.031,   -22.4651
"Line.mdv201_hn_2_820_b39623", 2, 1,    57.6717,     21.539,   -57.6678,   -21.5448
"Line.mdv201_c_1_506_a8143", 2, 1,    190.215,    76.7563,   -190.193,   -76.7439
"Line.mdv201_da_8_216_b1017349", 2, 1,    26.7199,    9.78428,    -26.719,   -9.79177
"Line.mdv201_hn_2_291_abc63681", 2, 3,    326.456,    136.832,     633.23,    243.036,    444.532,    181.937,   -326.411,   -136.818,   -633.076,   -242.786,   -444.541,   -181.824
"Line.mdv201_106259fuse", 2, 1,    219.646,    85.5848,   -219.646,    -85.584
"Line.mdv201_hn_2_382_abc823", 2, 3,    144.976,    61.6552,    9.34035,    3.59497,    141.274,    57.1591,   -144.969,   -61.6487,   -9.34047,   -3.60187,    -141.26,   -57.1569
"Line.mdv201_hn_2_821_b39618", 2, 1,    32.5961,    12.2036,   -32.5951,   -12.2102
"Line.mdv201_hn_2_927_c94731", 2, 1,    10.9944,    4.44925,   -10.9942,    -4.4582
"Line.mdv201_hn_2_235_abc854", 2, 3,     4.6535,     2.0219,    4.58273,    1.83789,    4.73668,    1.99497,   -4.65423,   -2.03198,   -4.58274,   -1.84901,   -4.73588,   -2.00518
"Line.mdv201_hn_2_306_abc28286", 2, 3,    38.2079,    15.9722,    21.5748,    8.12915,    140.556,    56.5969,   -38.2087,    -15.978,   -21.5743,   -8.13656,   -140.544,    -56.592
"Line.mdv201_c_1_411_a8127", 2, 1,    29.7555,    12.7576,   -29.7543,   -12.7642
"Line.mdv201_hn_2_520_a8092", 2, 1,    101.609,    42.0122,   -101.593,    -42.009
"Line.mdv201_hn_2_420_a814", 2, 1,    113.285,    48.2125,   -113.276,     -48.21
"Line.mdv201_hn_2_153_b14829", 2, 1,    628.524,      235.7,   -627.768,   -235.313
"Line.mdv201_hn_2_870_c831", 2, 1,    196.337,     78.111,   -196.304,   -78.0833
"Line.mdv201_c_1_354_b1008227", 2, 1,    7.92593,    2.98625,   -7.92584,   -2.99404
"Line.mdv201_hn_21036_abc28186", 2, 3,    4.65264,    2.01009,    4.58271,    1.82487,    4.73761,    1.98302,    -4.6535,    -2.0219,   -4.58273,   -1.83789,   -4.73668,   -1.99497
"Line.mdv201_da_8_139_b56756", 2, 1,    13.1873,    4.76427,   -13.1865,   -4.77913
"Line.mdv201_hn_2_422_a790", 2, 1,    142.002,    60.5024,   -141.979,   -60.4922
"Line.hn_2p011_sw", 2, 1,    135.247,    51.2212,   -135.247,   -51.2208
"Line.mdv201_15005elb", 2, 1,    135.247,    51.2208,   -135.247,   -51.2208
"Line.mdv201_1149717fuse", 2, 3, -6.48118E-005, -0.000469444,    15.0076,    5.71237, 6.47506E-005, -0.000470261, -5.47467E-009, 3.78346E-009,   -15.0076,   -5.71295, 3.31847E-009, -2.74171E-010
"Line.mdv201_da_8_218_b8204", 2, 1,    7.71498,    2.88908,   -7.71493,   -2.89589
"Line.mdv201_hn_2_387_b804", 2, 1,    31.7223,    12.2315,    -31.721,   -12.2377
"Line.mdv201_hn_2_859_b94734", 2, 1,    6.75405,    2.54401,   -6.75399,   -2.55108
"Line.mdv201_hn_2_830_a14875", 2, 1,    5.38314,    2.31398,   -5.38311,   -2.31833
"Line.mdv201_1012406fuse", 2, 1,    55.3374,    22.5304,   -55.3374,   -22.5306
"Line.mdv201_hn_2_186_abc15011", 2, 3,     549.74,    226.449,    250.872,    96.5367,    261.166,    102.443,    -549.46,   -226.009,   -250.888,    -96.504,   -261.087,   -102.433
"Line.mdv201_hn_2_522_c855", 2, 1,    95.7535,    38.6164,    -95.737,   -38.6147
"Line.mdv201_108027fuse", 2, 1,     9.8007,    3.94978,    -9.8007,   -3.95014
"Line.mdv201_1010727fuse", 2, 1,    155.371,    66.3165,   -155.371,   -66.3163
"Line.mdv201_hn_2_831_abc39762", 2, 3, -0.000216674, -0.00257617, 8.17685E-007, -0.00288387, 0.000215856, -0.00257261, 9.35172E-010, 6.23735E-010, 7.37085E-010, -5.75379E-010, -6.95486E-010, 1.7308E-009
"Line.mdv201_1145433fuse", 2, 1,    5.85462,    2.37584,   -5.85462,   -2.37619
"Line.mdv201_hn_2_540_c8108", 2, 1,    15.5185,    6.28841,   -15.5183,   -6.29275
"Line.mdv201_hn_2_653_a14878", 2, 1,    15.0468,    6.33671,   -15.0466,   -6.34422
"Line.mdv201_c_1_083_b69488", 2, 1,    16.3675,    6.16437,   -16.3672,   -6.16797
"Line.mdv201_hn_2p016_b1160487", 2, 1,    28.1639,    10.0408,    -28.163,    -10.156
"Line.mdv201_hn_2_223_b8168", 2, 1,    7.67846,    2.99725,   -7.67827,    -3.0089
"Line.mdv201_1163441elb-1_sw", 2, 1, 3.93756E-006, -0.0971687, -3.93798E-006,  0.0971474
"Line.mdv201_1163441elb", 2, 1, -5.03809E-005, -0.0971806, 5.03809E-005,  0.0971806
"Line.mdv201_hn_2_731_b14852", 2, 1,    4.32968,     1.7345,   -4.32964,   -1.74705
"Line.c_1p035_sw", 2, 1,    99.6964,    40.3442,   -99.6961,    -40.344
"Line.mdv201_8082elb", 2, 1,    99.6961,    40.3439,   -99.6961,   -40.3439
"Line.mdv201_hn_2_064_c14871", 2, 1,     45.113,    18.5362,   -45.1115,    -18.541
"Line.mdv201_hn_2_878_b1144266", 2, 1,    47.9754,    18.4469,   -47.9736,     -18.45
"Line.mdv201_hn_2_149_c28298", 2, 1,    56.0387,    22.9047,   -56.0283,   -22.9116
"Line.mdv201_hn_1_177_c69626", 2, 1,     9.8007,    3.95014,   -9.80066,   -3.95258
"Line.mdv201_da_8_809_c46402", 2, 1,    8.65325,    3.38815,   -8.65316,   -3.39738
"Line.mdv201_1144263fuse", 2, 1,    58.2451,    24.2023,   -58.2451,   -24.2026
"Line.mdv201_hn_2_868_c833", 2, 1,    243.168,    96.7111,   -243.106,   -96.6536
"Line.mdv201_hn_2_836_b39616", 2, 1,    18.8533,    7.12681,   -18.8531,   -7.13201
"Line.mdv201_103731fuse", 2, 1,    44.2511,    18.0825,   -44.2511,   -18.0828
"Line.mdv201_c_1p031_a1160501", 2, 1,    11.2568,    4.45729,   -11.2567,   -4.53874
"Line.mdv201_hn_2_404_b799", 2, 1,    6.70099,    2.63798,   -6.70096,   -2.64151
"Line.mdv201_hn_2_121_c28294", 2, 1,    12.0169,    4.86871,   -12.0167,   -4.87463
"Line.mdv201_c_1_389_a1000986", 2, 1,    67.7087,    27.9945,   -67.7042,   -27.9966
"Line.mdv201_hn_2_491_c8114", 2, 1,    33.0105,    13.1864,   -33.0089,   -13.1938
"Line.mdv201_hn_2_837_b39584", 2, 1,    332.372,    123.572,   -332.303,   -123.504
"Line.mdv201_da_8_150_abc56781", 2, 3,    44.6358,    18.2983,    217.082,    83.2796,    247.538,    97.0393,   -44.6379,   -18.3171,   -217.028,   -83.2604,   -247.518,   -96.9759
"Line.mdv201_c_1p026_a1160505", 2, 1,     35.645,    14.4102,   -35.6441,   -14.4813
"Line.mdv201_hn_2_659_c62237", 2, 1,    378.897,    148.574,    -378.76,   -148.435
"Line.mdv201_hn_2_893_a39590", 2, 1,    86.0305,    35.0683,   -86.0167,   -35.0675
"Line.hn_2p009_sw", 2, 1,    178.925,    66.7653,   -178.924,   -66.7646
"Line.mdv201_15008elb", 2, 1,    178.924,    66.7646,   -178.924,   -66.7646
"Line.mdv201_hn_2_173_b39600", 2, 1, -5.41999E-011, -0.00791119, 1.26056E-010, -2.69377E-011
"Line.mdv201_hn_2_220_b44580", 2, 1,    18.2549,    7.11932,   -18.2539,   -7.12958
"Line.mdv201_hn_2_630_c28228", 2, 1,    53.8423,    21.6415,   -53.8399,   -21.6465
"Line.mdv201_hn_2_427_b826", 2, 1,    12.4983,    4.80077,    -12.498,   -4.80924
"Line.mdv201_c_1p032_a69460", 2, 1,    20.5123,    8.30057,    -20.512,   -8.39173
"Line.mdv201_hn_2_350_abc52517", 2, 3,    63.0048,    26.1396,    119.316,    44.2559,    233.526,    94.5682,   -63.0053,   -26.1472,   -119.301,   -44.2618,    -233.49,   -94.5368
"Line.mdv201_hn_2_796_abc782", 2, 3,    2352.41,    1007.51,     2570.3,    1029.15,    2316.63,    973.695,   -2350.77,   -1004.47,   -2569.01,   -1024.84,   -2316.52,   -970.413
"Line.mdv201_hn_1_174_a94742", 2, 1,    6.42562,    2.65131,    -6.4255,   -2.66103
"Line.mdv201_hn_2_084_b38389", 2, 1,    6.04288,    2.37649,   -6.04276,   -2.38824
"Line.mdv201_hn_2_875_c63670", 2, 1,    4.46261,    1.86502,    -4.4626,   -1.86927
"Line.mdv201_1160504elb-1_sw", 2, 1,     35.645,    14.4103,    -35.645,   -14.4103
"Line.mdv201_1160504elb", 2, 1,     35.645,    14.4102,    -35.645,   -14.4102
"Line.mdv201_hn_2p028_a1160489", 2, 1,    10.9387,    4.72604,   -10.9385,   -4.88958
"Line.mdv201_hn_2_622_c28223", 2, 1,    85.5451,    34.5271,    -85.538,   -34.5283
"Line.mdv201_hn_2_842_b94740", 2, 1,    248.931,    92.3715,   -248.863,    -92.308
"Line.mdv201_c_1_066_abc8078", 2, 3,    387.865,    157.862,    577.894,    217.116,    233.736,    94.8118,   -387.724,   -157.807,   -577.684,   -216.893,   -233.725,   -94.8047
"Line.mdv201_hn_1_173_a94739", 2, 1,    6.42574,    2.64171,   -6.42562,   -2.65131
"Line.mdv201_hn_1_150_c1012408", 2, 1,    22.8611,    9.36536,    -22.861,   -9.36763
"Line.mdv201_c_1p022_a1160458", 2, 1,    190.193,    76.7439,   -190.167,   -76.8076
"Line.mdv201_106884fuse", 2, 1,    135.916,    53.8614,   -135.916,   -53.8613
"Line.mdv201_1144243fuse", 2, 1,    59.8299,    24.3168,   -59.8299,   -24.3171
"Line.mdv201_hn_2_843_b69621", 2, 1,    233.109,    86.4812,   -233.052,   -86.4288
"Line.mdv201_1160472elb-1_sw", 2, 1,     201.95,    74.9423,   -201.949,   -74.9414
"Line.mdv201_1160472elb", 2, 1,    201.949,    74.9414,   -201.949,   -74.9414
"Line.mdv201_hn_2_356_c28301", 2, 1,    22.0085,    8.98388,   -22.0077,   -8.98944
"Line.mdv201_hn_2_666_c62312", 2, 1,    17.1691,    6.84649,   -17.1688,   -6.85472
"Line.mdv201_hn_2_802_b836", 2, 1,    202.251,    76.2156,   -202.218,   -76.1878
"Line.mdv201_hn_1_210_a28279", 2, 1,     23.078,     9.5347,   -23.0772,   -9.53956
"Line.mdv201_hn_2_616_abc28226", 2, 3,    217.552,    91.0861,    632.629,    242.076,    444.597,     181.51,   -217.539,   -91.0983,   -632.503,   -241.903,   -444.611,   -181.422
"Line.mdv201_hn_2_212_c14834", 2, 1,    98.9761,    40.5161,   -98.9483,   -40.5122
"Line.mdv201_hn_1_154_c89826", 2, 1,    12.2262,     4.9212,   -12.2261,   -4.92972
"Line.mdv201_hn_2_393_abc63659", 2, 3,    1509.34,    629.047,    2051.79,     793.21,    1391.02,    568.589,   -1508.58,   -628.233,   -2051.09,   -790.662,   -1391.25,   -567.768
"Line.mdv201_hn_2_911_c44579", 2, 1,   0.139553,   0.143457,  -0.139553,  -0.154023
"Line.mdv201_hn_2_030_abc62265", 2, 3,     566.33,    234.065,    269.148,    103.606,    266.277,    104.446,   -566.178,   -233.831,   -269.155,   -103.584,   -266.238,   -104.441
"Line.mdv201_hn_2_638_c28237", 2, 1,    9.51891,     3.8767,   -9.51884,   -3.88403
"Line.mdv201_da_8_946_b56776", 2, 1,    13.8246,    5.23527,   -13.8244,    -5.2428
"Line.mdv201_hn_2_352_abc69623", 2, 3,    44.7271,    18.6399,    31.7766,    11.9118,     232.06,    93.8505,   -44.7298,   -18.6493,   -31.7743,   -11.9252,   -232.008,   -93.8084
"Line.mdv201_hn_2_793_abc1023346_sw", 2, 3,    2356.41,    1016.14,    2573.68,    1039.66,    2317.73,    982.302,   -2356.29,   -1016.01,   -2573.53,   -1039.52,   -2317.61,   -982.183
"Line.mdv201_hn_2_793_abc1023346", 2, 3,    2356.29,    1016.01,    2573.53,    1039.52,    2317.61,    982.183,   -2355.29,   -1013.81,   -2572.71,   -1036.83,   -2317.38,   -979.984
"Line.mdv201_108774fuse", 2, 1,    13.8249,    5.21843,   -13.8249,   -5.21878
"Line.mdv201_da_8_786_b1144236", 2, 1,     181.31,    69.6076,   -181.214,   -69.5678
"Line.mdv201_hn_2_492_c8123", 2, 1,    24.3672,    9.65532,   -24.3664,   -9.66323
"Line.mdv201_hn_2_848_b14854", 2, 1,     179.98,    66.6222,   -179.949,   -66.5975
"Line.hn_2p014_sw", 2, 1,    73.8609,    27.6248,   -73.8608,   -27.6247
"Line.mdv201_39754elb", 2, 1,    73.8608,    27.6246,   -73.8608,   -27.6246
"Line.mdv201_1023343fuse", 2, 1,    7.91022,    3.05445,   -7.91022,    -3.0548
"Line.mdv201_hn_2p026_a1010728", 2, 1,    10.9387,    4.66777,   -10.9387,   -4.72604
"Line.mdv201_hn_2_535_c8140", 2, 1,    65.1032,    26.4816,   -65.0975,   -26.4852
"Line.mdv201_106883fuse", 2, 1,    395.292,    155.114,   -395.292,    -155.11
"Line.mdv201_hn_2_408_abc63655", 2, 3,    2185.77,     918.65,    2536.64,    988.317,     2315.1,    948.524,   -2184.66,   -916.223,   -2535.39,   -984.802,   -2314.85,   -945.467
"Line.mdv201_hn_2_849_b94730", 2, 1,    124.378,    46.0146,   -124.363,   -46.0066
"Line.mdv201_104355fuse", 2, 1,    29.3129,    11.3758,   -29.3129,   -11.3762
"Line.mdv201_da_8_053_a63763", 2, 1,   0.409987,   0.216896,  -0.409986,  -0.227838
"Line.mdv201_hn_21040_c39772", 2, 1,    7.65781,    3.05866,   -7.65779,   -3.06203
"Line.mdv201_hn_2_672_c62308", 2, 1,     43.281,     16.795,   -43.2794,   -16.8005
"Line.mdv201_hn_2_643_a28241", 2, 1,    111.052,    46.4895,   -111.039,   -46.4846
"Line.mdv201_da_8_204_c46404", 2, 1,    157.031,    60.9548,   -156.999,   -60.9425
"Line.mdv201_hn_1_178_c69653", 2, 1,    16.7253,    6.66247,   -16.7248,   -6.67228
"Line.mdv201_hn_2_360_abc8165", 2, 3,    567.124,     235.76,    387.634,    148.967,    809.024,    319.342,   -567.099,   -235.668,   -387.604,   -148.964,   -808.885,   -319.143
"Line.mdv201_hn_2_606_a8132", 2, 1,    16.2119,    6.98415,   -16.2116,   -6.98933
"Line.mdv201_hn_2_810_abc63685", 2, 3,    2347.98,    999.283,     2566.8,     1017.5,    2316.32,     964.82,    -2346.2,   -995.996,    -2565.4,   -1012.84,    -2316.2,   -961.272
"Line.mdv201_hn_2_602_a8151", 2, 1,    137.168,    58.2929,    -137.16,   -58.2892
"Line.mdv201_hn_2_147_c14840", 2, 1,    22.8067,    9.24996,   -22.8057,   -9.25658
"Line.mdv201_hn_2_461_c62251", 2, 1,      42.08,    16.6826,   -42.0787,   -16.6877
"Line.mdv201_hn_2_527_c8153", 2, 1,    23.7227,    9.59584,   -23.7219,   -9.60399
"Line.mdv201_hn_2_635_ac63666", 2, 2,    245.341,    102.578,    125.177,    50.3859,   -245.281,   -102.512,   -125.151,   -50.3903
"Line.mdv201_c_1p032_a1160490", 2, 1, -1.61465E-007,  -0.109755, 1.64159E-007, 1.87548E-005
"Line.mdv201_1011953fuse", 2, 3,    4.65581,    2.05358,     4.5828,    1.87282,     4.7342,    2.02704,   -4.65587,   -2.05405,    -4.5828,    -1.8734,   -4.73414,   -2.02752
...