ckt5_Losses.Txt

LOSSES REPORT

Power Delivery Element Loss Report

Element                  kW Losses    % of Power   kvar Losses

"Line.MDV201_CONNECTOR"                       0.00000,      0.0     0.000128764
"Line.MDV201_HN_1_275_A94744"                 0.00000,      0.0     -0.000608277
"Line.MDV201_HN_2_466_C62235"                 0.00004,      0.0     2.1854E-005
"Line.MDV201_DA_8_780_A1144234"               0.00000,      0.0     -0.000937371
"Line.MDV201_1160486ELB-1_SW"                 0.00000,      0.0     -4.39152E-008
"Line.MDV201_1160486ELB"                      0.00000,      0.0     -6.77152E-008
"Line.MDV201_HN_2P009_B1160473"               0.00009,      0.0     -0.005421
"Line.MDV201_HN_2_088_ABC8164"                0.00216,    14.79     0.0329608
"Line.MDV201_HN_2_319_B39610"                 0.00000,      0.0     -0.000168318
"Line.MDV201_HN_2_417_A842"                   0.00003,      0.0     -6.87713E-005
"Line.MDV201_HN_2_941_B39760"                 0.00000,      0.0     -0.000548413
"Line.MDV201_1160480ELB-1_SW"                 0.00000,      0.0     1.34232E-005
"Line.MDV201_1160480ELB"                      0.00000,      0.0     -6.88972E-007
"Line.C_1P034_SW"                             0.00000,      0.0     2.61462E-006
"Line.MDV201_8088ELB"                         0.00000,      0.0     -1.75262E-007
"Line.MDV201_HN_2_499_ABC834"                 0.00591,     2.73     0.0572913
"Line.MDV201_1160478ELB-1_SW"                 0.00000,      0.0     5.6569E-006
"Line.MDV201_1160478ELB"                      0.00000,      0.0     -3.30688E-007
"Line.MDV201_HN_2_217_ABC8160"                0.00077,      0.0     0.0118496
"Line.MDV201_HN_2_942_C89791"                 0.00004,      0.0     -0.000127573
"Line.MDV201_99422FUSE"                       0.00000,      0.0     -6.51159E-006
"Line.MDV201_HN_2_140_ABC8124"                0.00009,      0.0     -0.000830417
"Line.MDV201_HN_2_818_ABC63707"               0.00074,      0.0     0.0077977
"Line.MDV201_DA_8_731_C74450"                 0.00000,      0.0     -0.000409977
"Line.MDV201_100494FUSE"                      0.00000,      0.0     -2.33085E-005
"Line.MDV201_107110FUSE"                      0.00000,      0.0     1.7487E-005
"Line.MDV201_HN_2_477_C8121"                  0.00001,      0.0     -0.00022739
"Line.MDV201_HN_2_876_C63671"                 0.00003,      0.0     -8.30597E-005
"Line.MDV201_HN_2_671_C89781"                 0.00020,      0.0     0.00135166
"Line.MDV201_DA_8_930_A39751"                 0.00001,      0.0     -0.000513602
"Line.MDV201_HN_2_394_ABC63658"               0.00404,     1.82     0.0998285
"Line.MDV201_DA_8_687_B74448"                 0.00009,      0.0     0.00030037
"Line.MDV201_1012643FUSE"                     0.00000,      0.0     -1.84336E-005
"Line.MDV201_HN_1_238_A39569"                 0.00000,      0.0     -0.00049653
"Line.MDV201_14869FUSE"                       0.00000,      0.0     -7.60019E-006
"Line.MDV201_HN_1_156_C89790"                 0.00000,      0.0     -0.000697064
"Line.MDV201_HN_2_318_C28272"                 0.00000,      0.0     -0.000471698
"Line.MDV201_C_1_140_ABC69477"                0.00000,      0.0     -0.0038984
"Line.MDV201_HN_2_948_C8176"                  0.00000,      0.0     -0.00037894
"Line.MDV201_1144230FUSE"                     0.00000,      0.0     -1.50004E-005
"Line.MDV201_HN_2_105_ABC39582"               0.00094,     1.36     0.00620183
"Line.MDV201_DA_8_691_B46386"                 0.00003,      0.0     -0.000101006
"Line.MDV201_HN_2_457_C62244"                 0.00003,      0.0     4.9E-005
"Line.C_1P038_SW"                             0.00000,      0.0     1.43436E-005
"Line.MDV201_8075ELB"                         0.00000,      0.0     -7.16308E-007
"Line.C_1P032_SW"                             0.00000,      0.0     -9.00651E-007
"Line.MDV201_107997ELB"                       0.00000,      0.0     -1.30848E-008
"Line.MDV201_HN_2_949_C8180"                  0.00000,      0.0     -0.00017096
"Line.MDV201_C_1P024_A8100"                   0.00011,      0.0     -0.00863386
"Line.MDV201_HN_2_166_C33824"                 0.00001,      0.0     -0.00043598
"Line.MDV201_HN_2_827_A14873"                 0.00000,      0.0     -0.000260143
"Line.HN_2P017_SW"                            0.00000,      0.0     -1.01704E-006
"Line.MDV201_62249ELB"                        0.00000,      0.0     -2.97898E-009
"Line.MDV201_HN_2_397_B63634"                 0.00005,      0.0     -4.1952E-005
"Line.MDV201_C_1P037_A1160467"                0.00003,      0.0     -0.00295373
"Line.MDV201_HN_2_280_A8185"                  0.00000,      0.0     -0.000256611
"Line.MDV201_HN_2_794_ABC791"                 0.01241,    10.57     0.324486
"Line.MDV201_HN_2_677_C62303"                 0.00000,      0.0     -0.000456365
"Line.MDV201_100478FUSE"                      0.00000,      0.0     -1.75021E-005
"Line.MDV201_HN_2_115_ABC58446"               0.00006,      0.0     -0.000859499
"Line.MDV201_HN_2_895_B52515"                 0.00001,      0.0     -0.000130198
"Line.MDV201_98795FUSE"                       0.00000,      0.0     -7.62888E-005
"Line.MDV201_HN_2_246_B39602"                 0.00001,      0.0     -0.000525522
"Line.MDV201_DA_8_149_ABC56778"               0.00029,      0.0     0.000951999
"Line.MDV201_HN_2_083_ABC62239"               0.00045,      0.0     0.00613172
"Line.MDV201_DA_8_145_ABC46393"               0.00000,      0.0     -0.00251013
"Line.MDV201_HN_2_729_B28246"                 0.00000,      0.0     -0.000172425
"Line.MDV201_HN_2_954_B39771"                 0.00000,      0.0     -0.00046791
"Line.MDV201_108776FUSE"                      0.00000,      0.0     -2.1008E-005
"Line.HN_2P028_SW"                            0.00000,      0.0     -7.37984E-007
"Line.MDV201_795ELB"                          0.00000,      0.0     -4.58301E-009
"Line.MDV201_1140227FUSE"                     0.00000,      0.0     -1.65793E-005
"Line.MDV201_HN_2_488_C8103"                  0.00001,      0.0     -0.000184891
"Line.MDV201_DA_8_917_A56768"                 0.00018,      0.0     0.00136389
"Line.MDV201_HN_2_029_ABC62262"               0.00079,      0.0     0.00968204
"Line.MDV201_HN_2_955_B39752"                 0.00000,      0.0     -0.000477823
"Line.MDV201_DA_8_215_B1017348"               0.00001,      0.0     -0.00102757
"Line.MDV201_DA_8_678_A56764"                 0.00001,      0.0     -0.000415145
"Line.MDV201_HN_2_834_B39617"                 0.00001,      0.0     -0.000406511
"Line.MDV201_HN_2_906_A39580"                 0.00000,      0.0     -0.000148073
"Line.MDV201_DA_8_734_C74440"                 0.00001,      0.0     -0.000265034
"Line.MDV201_DA_8_157_ABC58429"               0.00016,      0.0     -0.000479796
"Line.MDV201_HN_2_605_A21655"                 0.00007,      0.0     -2.05753E-005
"Line.MDV201_HN_2_636_AC28249"                0.00019,      0.0     0.000777754
"Line.MDV201_HN_2_705_ABC52524"               0.00053,      0.0     0.00598256
"Line.MDV201_DA_8_928_A39733"                 0.00005,      0.0     -0.00017711
"Line.MDV201_HN_2_383_ABC8113"                0.00009,      0.0     -0.00082659
"Line.MDV201_HN_2_803_B837"                   0.00010,      0.0     0.000484565
"Line.SW-HN_2_793_SW"                         0.00103,     0.89     0.0133507
"Line.MDV201_796USD"                          0.00000,      0.0     0.00969518
"Line.MDV201_HN_1_332_C28263"                 0.00000,      0.0     -0.000327988
"Line.MDV201_HN_2_890_B52521"                 0.00000,      0.0     -0.000629909
"Line.MDV201_HN_2_377_ABC28196"               0.00000,      0.0     -0.00175918
"Line.MDV201_HN_1_331_C28262"                 0.00000,      0.0     -0.000491904
"Line.MDV201_HN_2_628_C52531"                 0.00000,      0.0     -0.000371423
"Line.MDV201_HN_2_964_A14870"                 0.00007,      0.0     -2.08226E-005
"Line.MDV201_DA_8_200_C46399"                 0.00013,      0.0     0.000429814
"Line.MDV201_106895FUSE"                      0.00000,      0.0     -1.78707E-005
"Line.HN_2P054_SW"                            0.00000,      0.0     -1.22763E-006
"Line.MDV201_1163443ELB"                      0.00000,      0.0     -6.61744E-027
"Line.MDV201_DA_8_142_ABC6584"                0.00070,      0.0     0.00830955
"Line.MDV201_1144249FUSE"                     0.00000,      0.0     -2.16876E-006
"Line.MDV201_HN_2_965_A63726"                 0.00004,      0.0     -0.000149041
"Line.MDV201_C_1_410_A8131"                   0.00001,      0.0     -0.000346389
"Line.MDV201_HN_2_463_C62234"                 0.00002,      0.0     -0.000216174
"Line.MDV201_HN_2_133_ABC8083"                0.00208,     0.90     0.0190005
"Line.MDV201_HN_2_840_B52518"                 0.00027,      0.0     0.00185051
"Line.MDV201_HN_2_808_ABC783"                 0.01201,     7.60     0.311765
"Line.MDV201_HN_2_608_A8133"                  0.00000,      0.0     -0.000269682
"Line.MDV201_C_1P032_1160490"                 0.00000,      0.0     0
"Line.MDV201_HN_2_077_C28274"                 0.00000,      0.0     -0.000478171
"Line.MDV201_HN_2_711_A63676"                 0.00000,      0.0     -0.000213555
"Line.MDV201_HN_2_923_C28266"                 0.00000,      0.0     -0.000216491
"Line.MDV201_HN_21041_C39773"                 0.00000,      0.0     -0.000706419
"Line.MDV201_HN_2_644_A28238"                 0.00003,      0.0     -8.4456E-005
"Line.MDV201_1144260FUSE"                     0.00000,      0.0     7.06828E-005
"Line.MDV201_HN_2_539_C8098"                  0.00000,      0.0     -0.000271511
"Line.MDV201_HN_2_800_B850"                   0.00003,      0.0     -9.80157E-005
"Line.MDV201_HN_2_092_ABC63711"               0.00316,   108.44     0.0484897
"Line.MDV201_HN_2P014_B1160485"               0.00001,      0.0     -0.00399967
"Line.MDV201_C_1_412_A8128"                   0.00000,      0.0     -0.000269848
"Line.MDV201_HN_2_533_A8117"                  0.00000,      0.0     -0.00034793
"Line.MDV201_HN_2_970_A63710"                 0.00000,      0.0     -0.000292475
"Line.MDV201_C_1_400_A21653"                  0.00004,      0.0     -0.000110146
"Line.MDV201_HN_2_124_C63703"                 0.00001,      0.0     -0.000682547
"Line.MDV201_106254FUSE"                      0.00000,      0.0     -2.11314E-005
"Line.MDV201_HN_1_380_C1012407"               0.00000,      0.0     -0.000307579
"Line.MDV201_HN_2_381_ABC1010731"             0.00014,      0.0     -0.000396518
"Line.MDV201_DA_8_732_C74453"                 0.00002,      0.0     -0.000355782
"Line.MDV201_DA_8_144_ABC6582"                0.00033,      0.0     0.00394404
"Line.MDV201_HN_1_147_C1012412"               0.00000,      0.0     -0.000417877
"Line.MDV201_HN_2_846_B69620"                 0.00011,      0.0     0.000484804
"Line.MDV201_HN_2_814_ABC14891"               0.00354,   237.23     0.0555196
"Line.MDV201_DA_8_868_B1103250"               0.00000,      0.0     -0.000441212
"Line.MDV201_1017350FUSE"                     0.00000,      0.0     -2.35973E-005
"Line.MDV201_HN_2_719_C14872"                 0.00000,      0.0     -0.000159704
"Line.MDV201_HN_2_930_B62301"                 0.00000,      0.0     -0.000650373
"Line.MDV201_HN_2_407_B809"                   0.00008,      0.0     0.000161874
"Line.MDV201_HN_2_650_A28242"                 0.00000,      0.0     -0.00035614
"Line.MDV201_DA_8_492_ABC74428"               0.00013,      0.0     0.000226357
"Line.MDV201_HN_2_151_C14833"                 0.00017,      0.0     0.000236993
"Line.MDV201_HN_2_641_AC14893"                0.00013,      0.0     0.000508243
"Line.MDV201_DA_8_203_C46407"                 0.00024,      0.0     0.000638381
"Line.MDV201_HN_1_172_A94737"                 0.00000,      0.0     -0.000488731
"Line.MDV201_HN_1_165_C89780"                 0.00000,      0.0     -0.000452616
"Line.MDV201_HN_2_127_C63708"                 0.00001,      0.0     -0.000302107
"Line.MDV201_PB_0928_A1000987"                0.00000,      0.0     -0.00522329
"Line.MDV201_HN_2_128_ABC28288"               0.00007,      0.0     -0.00151268
"Line.SW-HN_2_381_SW"                         0.00000,      0.0     2.3776E-005
"Line.MDV201_1010732USD"                      0.00000,      0.0     -4.56659E-005
"Line.MDV201_1144262FUSE"                     0.00000,      0.0     -5.58993E-006
"Line.MDV201_C_1_138_ABC1127424"              0.00000,      0.0     -0.00334786
"Line.MDV201_DA_8_234_ABC56762"               0.00036,      0.0     0.00377633
"Line.MDV201_1144253FUSE"                     0.00000,      0.0     -2.38164E-005
"Line.MDV201_HN_2_120_A28281"                 0.00001,      0.0     -0.000402586
"Line.MDV201_HN_1_274_A94747"                 0.00000,      0.0     -0.000374591
"Line.MDV201_HN_2_852_B39588"                 0.00001,      0.0     -0.000466395
"Line.MDV201_HN_2_820_B39623"                 0.00001,      0.0     -0.000494391
"Line.MDV201_C_1_506_A8143"                   0.00007,      0.0     0.000327682
"Line.MDV201_DA_8_216_B1017349"               0.00000,      0.0     -0.000598316
"Line.MDV201_HN_2_291_ABC63681"               0.00069,      0.0     0.0118173
"Line.MDV201_106259FUSE"                      0.00000,      0.0     1.45082E-005
"Line.MDV201_HN_2_382_ABC823"                 0.00007,      0.0     -0.000213572
"Line.MDV201_HN_2_821_B39618"                 0.00000,      0.0     -0.000441291
"Line.MDV201_HN_2_927_C94731"                 0.00000,      0.0     -0.000435088
"Line.MDV201_HN_2_235_ABC854"                 0.00000,      0.0     -0.0015667
"Line.MDV201_HN_2_306_ABC28286"               0.00004,      0.0     -0.000779092
"Line.MDV201_C_1_411_A8127"                   0.00000,      0.0     -0.000356795
"Line.MDV201_HN_2_520_A8092"                  0.00005,      0.0     -8.8251E-005
"Line.MDV201_HN_2_420_A814"                   0.00003,      0.0     6.48097E-005
"Line.MDV201_HN_2_153_B14829"                 0.00204,     1.86     0.0103314
"Line.MDV201_HN_2_870_C831"                   0.00012,      0.0     0.000694998
"Line.MDV201_C_1_354_B1008227"                0.00000,      0.0     -0.000506847
"Line.MDV201_HN_21036_ABC28186"               0.00000,      0.0     -0.00183431
"Line.MDV201_DA_8_139_B56756"                 0.00000,      0.0     -0.00112023
"Line.MDV201_HN_2_422_A790"                   0.00008,      0.0     0.000333409
"Line.HN_2P011_SW"                            0.00000,      0.0     1.2947E-005
"Line.MDV201_15005ELB"                        0.00000,      0.0     -6.67074E-007
"Line.MDV201_1149717FUSE"                     0.00000,      0.0     -8.60724E-005
"Line.MDV201_DA_8_218_B8204"                  0.00000,      0.0     -0.000508269
"Line.MDV201_HN_2_387_B804"                   0.00000,      0.0     -0.000327303
"Line.MDV201_HN_2_859_B94734"                 0.00000,      0.0     -0.000502687
"Line.MDV201_HN_2_830_A14875"                 0.00000,      0.0     -0.000207336
"Line.MDV201_1012406FUSE"                     0.00000,      0.0     -1.62415E-005
"Line.MDV201_HN_2_186_ABC15011"               0.00132,     2.67     0.0159927
"Line.MDV201_HN_2_522_C855"                   0.00006,      0.0     -0.000133804
"Line.MDV201_108027FUSE"                      0.00000,      0.0     -1.89824E-005
"Line.MDV201_1010727FUSE"                     0.00000,      0.0     8.3E-006
"Line.MDV201_HN_2_831_ABC39762"               0.00000,      0.0     -0.000436457
"Line.MDV201_1145433FUSE"                     0.00000,      0.0     -1.93539E-005
"Line.MDV201_HN_2_540_C8108"                  0.00000,      0.0     -0.000221879
"Line.MDV201_HN_2_653_A14878"                 0.00000,      0.0     -0.000366697
"Line.MDV201_C_1_083_B69488"                  0.00000,      0.0     -0.000238695
"Line.MDV201_HN_2P016_B1160487"               0.00000,      0.0     -0.00861936
"Line.MDV201_HN_2_223_B8168"                  0.00000,      0.0     -0.000576767
"Line.MDV201_1163441ELB-1_SW"                 0.00000,      0.0     -1.22589E-006
"Line.MDV201_1163441ELB"                      0.00000,      0.0     -8.02104E-011
"Line.MDV201_HN_2_731_B14852"                 0.00000,      0.0     -0.000605089
"Line.C_1P035_SW"                             0.00000,      0.0     6.20483E-006
"Line.MDV201_8082ELB"                         0.00000,      0.0     -3.40887E-007
"Line.MDV201_HN_2_064_C14871"                 0.00001,      0.0     -0.000254934
"Line.MDV201_HN_2_878_B1144266"               0.00001,      0.0     -0.000191616
"Line.MDV201_HN_2_149_C28298"                 0.00004,      0.0     -0.000397778
"Line.MDV201_HN_1_177_C69626"                 0.00000,      0.0     -0.000132346
"Line.MDV201_DA_8_809_C46402"                 0.00000,      0.0     -0.000585905
"Line.MDV201_1144263FUSE"                     0.00000,      0.0     -1.40507E-005
"Line.MDV201_HN_2_868_C833"                   0.00023,      0.0     0.00156583
"Line.MDV201_HN_2_836_B39616"                 0.00000,      0.0     -0.000324307
"Line.MDV201_103731FUSE"                      0.00000,      0.0     -1.81768E-005
"Line.MDV201_C_1P031_A1160501"                0.00000,      0.0     -0.00449513
"Line.MDV201_HN_2_404_B799"                   0.00000,      0.0     -0.000176777
"Line.MDV201_HN_2_121_C28294"                 0.00000,      0.0     -0.000289947
"Line.MDV201_C_1_389_A1000986"                0.00001,      0.0     -0.000194854
"Line.MDV201_HN_2_491_C8114"                  0.00001,      0.0     -0.000374984
"Line.MDV201_HN_2_837_B39584"                 0.00022,      0.0     0.00162805
"Line.MDV201_DA_8_150_ABC56781"               0.00024,      0.0     0.0005875
"Line.MDV201_C_1P026_A1160505"                0.00000,      0.0     -0.00392893
"Line.MDV201_HN_2_659_C62237"                 0.00047,      0.0     0.00380329
"Line.MDV201_HN_2_893_A39590"                 0.00004,      0.0     -0.000167853
"Line.HN_2P009_SW"                            0.00000,      0.0     2.24416E-005
"Line.MDV201_15008ELB"                        0.00000,      0.0     -1.10504E-006
"Line.MDV201_HN_2_173_B39600"                 0.00000,      0.0     -0.000524344
"Line.MDV201_HN_2_220_B44580"                 0.00000,      0.0     -0.000515121
"Line.MDV201_HN_2_630_C28228"                 0.00001,      0.0     -0.000273748
"Line.MDV201_HN_2_427_B826"                   0.00000,      0.0     -0.000431289
"Line.MDV201_C_1P032_A69460"                  0.00000,      0.0     -0.00512581
"Line.MDV201_HN_2_350_ABC52517"               0.00017,      0.0     4.83848E-005
"Line.MDV201_HN_2_796_ABC782"                 0.01425,     9.91     0.369904
"Line.MDV201_HN_1_174_A94742"                 0.00000,      0.0     -0.000561078
"Line.MDV201_HN_2_084_B38389"                 0.00000,      0.0     -0.000589833
"Line.MDV201_HN_2_875_C63670"                 0.00000,      0.0     -0.000217706
"Line.MDV201_1160504ELB-1_SW"                 0.00000,      0.0     -2.14811E-007
"Line.MDV201_1160504ELB"                      0.00000,      0.0     -4.3897E-008
"Line.MDV201_HN_2P028_A1160489"               0.00000,      0.0     -0.00627698
"Line.MDV201_HN_2_622_C28223"                 0.00003,      0.0     -0.000170622
"Line.MDV201_HN_2_842_B94740"                 0.00022,      0.0     0.00133173
"Line.MDV201_C_1_066_ABC8078"                 0.00100,     0.63     0.00847769
"Line.MDV201_HN_1_173_A94739"                 0.00000,      0.0     -0.000554353
"Line.MDV201_HN_1_150_C1012408"               0.00000,      0.0     -0.0001249
"Line.MDV201_C_1P022_A1160458"                0.00010,      0.0     -0.00375858
"Line.MDV201_106884FUSE"                      0.00000,      0.0     -5.51886E-006
"Line.MDV201_1144243FUSE"                     0.00000,      0.0     -1.40072E-005
"Line.MDV201_HN_2_843_B69621"                 0.00018,      0.0     0.00104352
"Line.MDV201_1160472ELB-1_SW"                 0.00000,      0.0     2.87598E-005
"Line.MDV201_1160472ELB"                      0.00000,      0.0     -1.39643E-006
"Line.MDV201_HN_2_356_C28301"                 0.00000,      0.0     -0.000276031
"Line.MDV201_HN_2_666_C62312"                 0.00000,      0.0     -0.000488203
"Line.MDV201_HN_2_802_B836"                   0.00011,      0.0     0.000565929
"Line.MDV201_HN_1_210_A28279"                 0.00000,      0.0     -0.000291733
"Line.MDV201_HN_2_616_ABC28226"               0.00048,      0.0     0.00749554
"Line.MDV201_HN_2_212_C14834"                 0.00010,      0.0     2.41845E-005
"Line.MDV201_HN_1_154_C89826"                 0.00000,      0.0     -0.000466192
"Line.MDV201_HN_2_393_ABC63659"               0.00570,     2.54     0.140914
"Line.MDV201_HN_2_911_C44579"                 0.00000,      0.0     -0.000615589
"Line.MDV201_HN_2_030_ABC62265"               0.00072,      0.0     0.00884744
"Line.MDV201_HN_2_638_C28237"                 0.00000,      0.0     -0.00033847
"Line.MDV201_DA_8_946_B56776"                 0.00000,      0.0     -0.000410414
"Line.MDV201_HN_2_352_ABC69623"               0.00020,      0.0     -7.6958E-005
"Line.MDV201_HN_2_793_ABC1023346_SW"          0.00103,     0.97     0.0133521
"Line.MDV201_HN_2_793_ABC1023346"             0.00950,     8.89     0.248388
"Line.MDV201_108774FUSE"                      0.00000,      0.0     -1.87418E-005
"Line.MDV201_DA_8_786_B1144236"               0.00027,      0.0     0.000862699
"Line.MDV201_HN_2_492_C8123"                  0.00000,      0.0     -0.00038843
"Line.MDV201_HN_2_848_B14854"                 0.00010,      0.0     0.00032911
"Line.HN_2P014_SW"                            0.00000,      0.0     2.49014E-006
"Line.MDV201_39754ELB"                        0.00000,      0.0     -1.84643E-007
"Line.MDV201_1023343FUSE"                     0.00000,      0.0     -2.17505E-005
"Line.MDV201_HN_2P026_A1010728"               0.00000,      0.0     -0.00223555
"Line.MDV201_HN_2_535_C8140"                  0.00002,      0.0     -0.000254682
"Line.MDV201_106883FUSE"                      0.00000,      0.0     9.86922E-005
"Line.MDV201_HN_2_408_ABC63655"               0.01194,     6.06     0.31243
"Line.MDV201_HN_2_849_B94730"                 0.00005,      0.0     -0.000133436
"Line.MDV201_104355FUSE"                      0.00000,      0.0     -1.66681E-005
"Line.MDV201_DA_8_053_A63763"                 0.00000,      0.0     -0.000613679
"Line.MDV201_HN_21040_C39772"                 0.00000,      0.0     -0.000192389
"Line.MDV201_HN_2_672_C62308"                 0.00000,      0.0     -0.000376257
"Line.MDV201_HN_2_643_A28241"                 0.00005,      0.0     1.03042E-006
"Line.MDV201_DA_8_204_C46404"                 0.00009,      0.0     0.000184763
"Line.MDV201_HN_1_178_C69653"                 0.00000,      0.0     -0.000537536
"Line.MDV201_HN_2_360_ABC8165"                0.00062,      0.0     0.0093996
"Line.MDV201_HN_2_606_A8132"                  0.00000,      0.0     -0.000270353
"Line.MDV201_HN_2_810_ABC63685"               0.01539,     8.45     0.399441
"Line.MDV201_HN_2_602_A8151"                  0.00003,      0.0     7.36935E-005
"Line.MDV201_HN_2_147_C14840"                 0.00000,      0.0     -0.000329608
"Line.MDV201_HN_2_461_C62251"                 0.00000,      0.0     -0.000335584
"Line.MDV201_HN_2_527_C8153"                  0.00000,      0.0     -0.000424902
"Line.MDV201_HN_2_635_AC63666"                0.00029,      0.0     0.00162891
"Line.MDV201_C_1P032_A1160490"                0.00000,      0.0     -0.00605553
"Line.MDV201_1011953FUSE"                     0.00000,      0.0     -7.63097E-005
"Line.MDV201_HN_1_450_B52513"                 0.00001,      0.0     -0.000318981
"Line.MDV201_HN_2_062_C28277"                 0.00000,      0.0     -0.000347617
"Line.MDV201_HN_2_854_B39586"                 0.00000,      0.0     -0.00039771
"Line.MDV201_HN_2_458_B39599"                 0.00000,      0.0     -0.000502391
"Line.MDV201_C_1P034_A1160492"                0.00002,      0.0     -0.00700821
"Line.MDV201_1160484ELB-1_SW"                 0.00000,      0.0     2.59885E-006
"Line.MDV201_1160484ELB"                      0.00000,      0.0     -1.8964E-007
"Line.MDV201_C_1_124_ABC69481"                0.00002,      0.0     -0.00352435
"Line.MDV201_1160461ELB-1_SW"                 0.00000,      0.0     1.32733E-005
"Line.MDV201_1160461ELB"                      0.00000,      0.0     -6.66156E-007
"Line.MDV201_106882FUSE"                      0.00000,      0.0     -1.76111E-005
"Line.MDV201_HN_2_410_A819"                   0.00000,      0.0     -0.000242046
"Line.MDV201_HN_2_336_B8196"                  0.00000,      0.0     -0.00063007
"Line.MDV201_HN_2_678_C62304"                 0.00000,      0.0     -0.000485355
"Line.MDV201_HN_2_649_A28248"                 0.00001,      0.0     -0.000275559
"Line.MDV201_C_1_267_ABC8074"                 0.00149,     0.93     0.0127681
"Line.MDV201_HN_2_067_ABC14836"               0.00135,     0.87     0.0136883
"Line.MDV201_HN_2_031_ABC62264"               0.00068,      0.0     0.00846534
"Line.MDV201_HN_2_816_ABC14879"               0.00087,      0.0     0.0092491
"Line.MDV201_HN_1_401_A39574"                 0.00000,      0.0     -0.000823242
"Line.MDV201_HN_2_537_C8094"                  0.00002,      0.0     -0.00027488
"Line.MDV201_HN_2_915_ABC39576"               0.00019,      0.0     8.09016E-005
"Line.MDV201_HN_1_166_A39571"                 0.00002,      0.0     -0.000688528
"Line.MDV201_HN_2_229_ABC8126"                0.00009,      0.0     -0.00097563
"Line.MDV201_C_1_069_ABC69484"                0.00038,      0.0     0.00590432
"Line.MDV201_102184FUSE"                      0.00000,      0.0     -1.98758E-005
"Line.HN_2P012_SW"                            0.00000,      0.0     5.46823E-006
"Line.MDV201_39759ELB"                        0.00000,      0.0     -3.22014E-007
"Line.MDV201_HN_2_531_C857"                   0.00001,      0.0     -9.71787E-005
"Line.MDV201_HN_2_861_C39629"                 0.00000,      0.0     -0.000363435
"Line.MDV201_1144254FUSE"                     0.00000,      0.0     -1.69648E-005
"Line.MDV201_HN_2_487_C8099"                  0.00002,      0.0     -0.000237317
"Line.MDV201_HN_2_489_C8104"                  0.00001,      0.0     -0.000259077
"Line.MDV201_HN_1_455_A94736"                 0.00000,      0.0     -0.000133067
"Line.MDV201_DA_8_674_A6597"                  0.00007,      0.0     8.66018E-006
"Line.MDV201_DA_8_918_A56770"                 0.00026,      0.0     0.00198733
"Line.MDV201_HN_2_068_ABC14845"               0.00078,      0.0     0.00840445
"Line.MDV201_HN_2_706_C52532"                 0.00016,      0.0     0.000877946
"Line.MDV201_HN_2_655_A14863"                 0.00000,      0.0     -0.000440523
"Line.MDV201_1000983FUSE"                     0.00000,      0.0     5.83249E-005
"Line.MDV201_HN_2_117_ABC28284"               0.00006,      0.0     -0.000960208
"Line.MDV201_DA_8_936_ABC67891"               0.00000,      0.0     -0.00261204
"Line.MDV201_HN_2_937_B14993"                 0.00003,      0.0     -0.000263434
"Line.MDV201_DA_8_697_B46390"                 0.00000,      0.0     -0.000503781
"Line.MDV201_HN_2_656_A14864"                 0.00001,      0.0     -0.000494428
"Line.MDV201_HN_2_813_ABC63654"               0.00334,   180.75     0.0524269
"Line.MDV201_HN_2_428_B812"                   0.00003,      0.0     -0.000146844
"Line.MDV201_HN_2_228_ABC810"                 0.00197,     0.85     0.0390145
"Line.MDV201_100479FUSE"                      0.00000,      0.0     -1.46298E-005
"Line.MDV201_DA_8_729_C74452"                 0.00000,      0.0     -0.000411419
"Line.HN_2P010_SW"                            0.00000,      0.0     1.63115E-005
"Line.MDV201_15004ELB"                        0.00000,      0.0     -8.22241E-007
"Line.MDV201_C_1_403_A21649"                  0.00001,      0.0     -0.00010721
"Line.MDV201_HN_2_722_C52525"                 0.00000,      0.0     -0.000207387
"Line.MDV201_106261FUSE"                      0.00000,      0.0     -9.98289E-006
"Line.MDV201_C_1_407_A8136"                   0.00000,      0.0     -0.000229967
"Line.MDV201_HN_2_872_C63667"                 0.00006,      0.0     0.0001906
"Line.MDV201_100475FUSE"                      0.00000,      0.0     -1.73659E-005
"Line.MDV201_DA_8_727_C39744"                 0.00008,      0.0     -1.70761E-005
"Line.MDV201_DA_8_257_ABC88677"               0.00000,      0.0     -0.0021172
"Line.MDV201_103730FUSE"                      0.00000,      0.0     -2.25972E-005
"Line.MDV201_1160476ELB-1_SW"                 0.00000,      0.0     2.28204E-005
"Line.MDV201_1160476ELB"                      0.00000,      0.0     -1.12245E-006
"Line.MDV201_HN_2_712_A63678"                 0.00000,      0.0     -0.000297459
"Line.MDV201_HN_2_661_C62248"                 0.00000,      0.0     -0.000379732
"Line.MDV201_HN_2_924_C28267"                 0.00000,      0.0     -0.000611949
"Line.MDV201_1144244FUSE"                     0.00000,      0.0     -2.21586E-005
"Line.MDV201_HN_2_465_C62233"                 0.00004,      0.0     -8.45159E-005
"Line.MDV201_HN_2_943_C89813"                 0.00001,      0.0     -0.000108501
"Line.MDV201_DA_8_971_C46408"                 0.00000,      0.0     -7.6593E-005
"Line.MDV201_HN_2_663_C62247"                 0.00026,      0.0     0.00205007
"Line.MDV201_HN_2_934_B15006"                 0.00014,      0.0     0.000373678
"Line.MDV201_HN_1_170_A94727"                 0.00000,      0.0     -0.000422076
"Line.MDV201_HN_2_085_ABC38388"               0.00082,      0.0     0.0124509
"Line.MDV201_HN_2_877_C63672"                 0.00002,      0.0     -0.000178565
"Line.C_1P037_SW"                             0.00000,      0.0     1.07157E-005
"Line.MDV201_8076ELB"                         0.00000,      0.0     -5.48937E-007
"Line.MDV201_1149715FUSE"                     0.00000,      0.0     -2.24081E-005
"Line.MDV201_HN_2_609_C28278"                 0.00000,      0.0     -0.000343646
"Line.MDV201_HN_2_624_C14866"                 0.00001,      0.0     -0.000390299
"Line.MDV201_DA_8_158_C58433"                 0.00007,      0.0     0.000260608
"Line.MDV201_1000988FUSE"                     0.00000,      0.0     -1.86212E-005
...