ckt5_Power_elem_kVA.txt

CIRCUIT ELEMENT POWER FLOW

(Power Flow into element from indicated Bus)

Power Delivery Elements

  Bus                          Phase     kW     +j   kvar         kVA         PF

ELEMENT = "Vsource.SOURCE"
SOURCEBUS                          1         0.0 +j      0.0        0.0       1.0000
SOURCEBUS                          2        -0.0 +j      0.0        0.0      -0.0000
SOURCEBUS                          3         0.0 +j      0.0        0.0       0.0000
   TERMINAL TOTAL ......................     0.0 +j      0.0        0.0       1.0000
SOURCEBUS                          0         0.0 +j      0.0        0.0       1.0000
SOURCEBUS                          0         0.0 +j      0.0        0.0       1.0000
SOURCEBUS                          0         0.0 +j      0.0        0.0       1.0000
   TERMINAL TOTAL ......................     0.0 +j      0.0        0.0       1.0000

ELEMENT = "Line.MDV201_CONNECTOR"
_MDV_SUB_1_LSB                     1         0.0 +j     -6.2        6.2      -0.0076
_MDV_SUB_1_LSB                     2        -0.1 +j     -6.6        6.6       0.0174
_MDV_SUB_1_LSB                     3        -0.0 +j     -6.2        6.2       0.0061
   TERMINAL TOTAL ......................    -0.1 +j    -19.0       19.0       0.0056
MDV201                             1        -0.0 +j      6.2        6.2      -0.0076
MDV201                             2         0.1 +j      6.6        6.6       0.0174
MDV201                             3         0.0 +j      6.2        6.2       0.0061
   TERMINAL TOTAL ......................     0.1 +j     19.0       19.0       0.0056

ELEMENT = "Line.MDV201_HN_1_275_A94744"
94743                              1        -0.0 +j     -0.0        0.0       0.1925
   TERMINAL TOTAL ......................    -0.0 +j     -0.0        0.0       0.1925
94744                              1         0.0 +j      0.0        0.0       0.1981
   TERMINAL TOTAL ......................     0.0 +j      0.0        0.0       0.1981

ELEMENT = "Line.MDV201_HN_2_466_C62235"
62244                              3        -0.0 +j     -0.5        0.5       0.0107
   TERMINAL TOTAL ......................    -0.0 +j     -0.5        0.5       0.0107
62235                              3         0.0 +j      0.5        0.5       0.0108
   TERMINAL TOTAL ......................     0.0 +j      0.5        0.5       0.0108

ELEMENT = "Line.MDV201_DA_8_780_A1144234"
1144235                            1         0.0 +j     -0.1        0.1      -0.0291
   TERMINAL TOTAL ......................     0.0 +j     -0.1        0.1      -0.0291
1144234                            1        -0.0 +j      0.1        0.1      -0.0295
   TERMINAL TOTAL ......................    -0.0 +j      0.1        0.1      -0.0295

ELEMENT = "Line.MDV201_1160486ELB-1_SW"
39754                              2        -0.0 +j     -0.2        0.2       0.1146
   TERMINAL TOTAL ......................    -0.0 +j     -0.2        0.2       0.1146
MDV201_1160486ELB_INT              2         0.0 +j      0.2        0.2       0.1146
   TERMINAL TOTAL ......................     0.0 +j      0.2        0.2       0.1146

ELEMENT = "Line.MDV201_1160486ELB"
MDV201_1160486ELB_INT              2        -0.0 +j     -0.2        0.2       0.1146
   TERMINAL TOTAL ......................    -0.0 +j     -0.2        0.2       0.1146
1160486                            2         0.0 +j      0.2        0.2       0.1146
   TERMINAL TOTAL ......................     0.0 +j      0.2        0.2       0.1146

ELEMENT = "Line.MDV201_HN_2P009_B1160473"
1160476                            2         0.1 +j     -0.7        0.7      -0.1091
   TERMINAL TOTAL ......................     0.1 +j     -0.7        0.7      -0.1091
1160473                            2        -0.1 +j      0.7        0.7      -0.1098
   TERMINAL TOTAL ......................    -0.1 +j      0.7        0.7      -0.1098

ELEMENT = "Line.MDV201_HN_2_088_ABC8164"
8163                               1         0.1 +j     -2.0        2.0      -0.0708
8163                               2        -0.1 +j     -1.3        1.3       0.0940
8163                               3        -0.0 +j     -2.9        2.9       0.0016
   TERMINAL TOTAL ......................     0.0 +j     -6.2        6.2      -0.0023
8164                               1        -0.1 +j      2.0        2.0      -0.0708
8164                               2         0.1 +j      1.3        1.3       0.0941
8164                               3         0.0 +j      2.9        2.9       0.0024
   TERMINAL TOTAL ......................    -0.0 +j      6.3        6.3      -0.0020

ELEMENT = "Line.MDV201_HN_2_319_B39610"
103730                             2        -0.0 +j     -0.0        0.0       0.0247
   TERMINAL TOTAL ......................    -0.0 +j     -0.0        0.0       0.0247
39610                              2         0.0 +j      0.0        0.0       0.0248
   TERMINAL TOTAL ......................     0.0 +j      0.0        0.0       0.0248

ELEMENT = "Line.MDV201_HN_2_417_A842"
835                                1        -0.0 +j     -0.3        0.3       0.0862
   TERMINAL TOTAL ......................    -0.0 +j     -0.3        0.3       0.0862
842                                1         0.0 +j      0.3        0.3       0.0864
   TERMINAL TOTAL ......................     0.0 +j      0.3        0.3       0.0864

ELEMENT = "Line.MDV201_HN_2_941_B39760"
39775                              2        -0.0 +j     -0.1        0.1       0.1027
   TERMINAL TOTAL ......................    -0.0 +j     -0.1        0.1       0.1027
39760                              2         0.0 +j      0.1        0.1       0.1032
   TERMINAL TOTAL ......................     0.0 +j      0.1        0.1       0.1032

ELEMENT = "Line.MDV201_1160480ELB-1_SW"
15004                              2         0.1 +j     -0.6        0.6      -0.1716
   TERMINAL TOTAL ......................     0.1 +j     -0.6        0.6      -0.1716
MDV201_1160480ELB_INT              2        -0.1 +j      0.6        0.6      -0.1715
   TERMINAL TOTAL ......................    -0.1 +j      0.6        0.6      -0.1715

ELEMENT = "Line.MDV201_1160480ELB"
MDV201_1160480ELB_INT              2         0.1 +j     -0.6        0.6      -0.1715
   TERMINAL TOTAL ......................     0.1 +j     -0.6        0.6      -0.1715
1160480                            2        -0.1 +j      0.6        0.6      -0.1715
   TERMINAL TOTAL ......................    -0.1 +j      0.6        0.6      -0.1715

ELEMENT = "Line.C_1P034_SW"
1160492                            1        -0.0 +j     -0.3        0.3       0.1066
   TERMINAL TOTAL ......................    -0.0 +j     -0.3        0.3       0.1066
MDV201_8088ELB_INT                 1         0.0 +j      0.3        0.3       0.1066
   TERMINAL TOTAL ......................     0.0 +j      0.3        0.3       0.1066

ELEMENT = "Line.MDV201_8088ELB"
MDV201_8088ELB_INT                 1        -0.0 +j     -0.3        0.3       0.1066
   TERMINAL TOTAL ......................    -0.0 +j     -0.3        0.3       0.1066
8088                               1         0.0 +j      0.3        0.3       0.1066
   TERMINAL TOTAL ......................     0.0 +j      0.3        0.3       0.1066

ELEMENT = "Line.MDV201_HN_2_499_ABC834"
829                                1        -0.3 +j     -2.5        2.5       0.1073
829                                2        -0.0 +j     -3.2        3.2       0.0011
829                                3         0.1 +j     -2.4        2.4      -0.0224
   TERMINAL TOTAL ......................    -0.2 +j     -8.1        8.1       0.0268
834                                1         0.3 +j      2.5        2.5       0.1087
834                                2         0.0 +j      3.3        3.3       0.0016
834                                3        -0.1 +j      2.4        2.4      -0.0227
   TERMINAL TOTAL ......................     0.2 +j      8.1        8.1       0.0273

ELEMENT = "Line.MDV201_1160478ELB-1_SW"
15005                              2         0.0 +j     -0.4        0.4      -0.0612
   TERMINAL TOTAL ......................     0.0 +j     -0.4        0.4      -0.0612
MDV201_1160478ELB_INT              2        -0.0 +j      0.4        0.4      -0.0612
   TERMINAL TOTAL ......................    -0.0 +j      0.4        0.4      -0.0612

ELEMENT = "Line.MDV201_1160478ELB"
MDV201_1160478ELB_INT              2         0.0 +j     -0.4        0.4      -0.0612
   TERMINAL TOTAL ......................     0.0 +j     -0.4        0.4      -0.0612
1160478                            2        -0.0 +j      0.4        0.4      -0.0612
   TERMINAL TOTAL ......................    -0.0 +j      0.4        0.4      -0.0612

ELEMENT = "Line.MDV201_HN_2_217_ABC8160"
44582                              1         0.1 +j     -2.0        2.0      -0.0705
44582                              2        -0.1 +j     -1.4        1.4       0.0952
44582                              3        -0.0 +j     -3.2        3.2       0.0023
   TERMINAL TOTAL ......................    -0.0 +j     -6.6        6.6       0.0001
8160                               1        -0.1 +j      2.0        2.0      -0.0706
8160                               2         0.1 +j      1.4        1.4       0.0954
8160                               3         0.0 +j      3.2        3.2       0.0026
   TERMINAL TOTAL ......................     0.0 +j      6.6        6.6       0.0002

ELEMENT = "Line.MDV201_HN_2_942_C89791"
89783                              3        -0.0 +j     -0.4        0.4       0.0032
   TERMINAL TOTAL ......................    -0.0 +j     -0.4        0.4       0.0032
89791                              3         0.0 +j      0.4        0.4       0.0033
   TERMINAL TOTAL ......................     0.0 +j      0.4        0.4       0.0033

ELEMENT = "Line.MDV201_99422FUSE"
6584                               1         0.0 +j     -0.5        0.5      -0.0630
   TERMINAL TOTAL ......................     0.0 +j     -0.5        0.5      -0.0630
99422                              1        -0.0 +j      0.5        0.5      -0.0630
   TERMINAL TOTAL ......................    -0.0 +j      0.5        0.5      -0.0630

ELEMENT = "Line.MDV201_HN_2_140_ABC8124"
8113                               1        -0.0 +j     -0.5        0.5       0.0522
8113                               2        -0.0 +j     -0.0        0.0       0.0163
8113                               3         0.0 +j     -0.3        0.3      -0.0096
   TERMINAL TOTAL ......................    -0.0 +j     -0.8        0.8       0.0310
8124                               1         0.0 +j      0.5        0.5       0.0521
8124                               2         0.0 +j      0.0        0.0       0.0166
8124                               3        -0.0 +j      0.3        0.3      -0.0091
   TERMINAL TOTAL ......................     0.0 +j      0.8        0.8       0.0312

ELEMENT = "Line.MDV201_HN_2_818_ABC63707"
14880                              1        -0.0 +j     -0.4        0.4       0.1201
14880                              2         0.1 +j     -2.1        2.1      -0.0586
14880                              3         0.0 +j     -0.5        0.5      -0.0845
   TERMINAL TOTAL ......................     0.1 +j     -3.0        3.0      -0.0413
63707                              1         0.0 +j      0.4        0.4       0.1214
63707                              2        -0.1 +j      2.1        2.2      -0.0580
63707                              3        -0.0 +j      0.5        0.5      -0.0858
   TERMINAL TOTAL ......................    -0.1 +j      3.0        3.0      -0.0409

ELEMENT = "Line.MDV201_DA_8_731_C74450"
74449                              3        -0.0 +j     -0.1        0.1       0.0155
   TERMINAL TOTAL ......................    -0.0 +j     -0.1        0.1       0.0155
74450                              3         0.0 +j      0.1        0.1       0.0157
   TERMINAL TOTAL ......................     0.0 +j      0.1        0.1       0.0157

ELEMENT = "Line.MDV201_100494FUSE"
14989                              2        -0.0 +j     -0.0        0.0       0.0700
   TERMINAL TOTAL ......................    -0.0 +j     -0.0        0.0       0.0700
100494                             2         0.0 +j      0.0        0.0       0.0701
   TERMINAL TOTAL ......................     0.0 +j      0.0        0.0       0.0701

ELEMENT = "Line.MDV201_107110FUSE"
63683                              1        -0.0 +j     -0.8        0.8       0.0451
63683                              3         0.0 +j     -0.4        0.4      -0.0023
   TERMINAL TOTAL ......................    -0.0 +j     -1.3        1.3       0.0292
107110                             1         0.0 +j      0.8        0.8       0.0451
107110                             3        -0.0 +j      0.4        0.4      -0.0022
   TERMINAL TOTAL ......................     0.0 +j      1.3        1.3       0.0292

ELEMENT = "Line.MDV201_HN_2_477_C8121"
1144242                            3         0.0 +j     -0.2        0.2      -0.0109
   TERMINAL TOTAL ......................     0.0 +j     -0.2        0.2      -0.0109
8121                               3        -0.0 +j      0.2        0.2      -0.0109
   TERMINAL TOTAL ......................    -0.0 +j      0.2        0.2      -0.0109

ELEMENT = "Line.MDV201_HN_2_876_C63671"
63668                              3         0.0 +j     -0.4        0.4      -0.0337
   TERMINAL TOTAL ......................     0.0 +j     -0.4        0.4      -0.0337
63671                              3        -0.0 +j      0.4        0.4      -0.0336
   TERMINAL TOTAL ......................    -0.0 +j      0.4        0.4      -0.0336

ELEMENT = "Line.MDV201_HN_2_671_C89781"
89784                              3         0.0 +j     -0.9        0.9      -0.0062
   TERMINAL TOTAL ......................     0.0 +j     -0.9        0.9      -0.0062
89781                              3        -0.0 +j      0.9        0.9      -0.0060
   TERMINAL TOTAL ......................    -0.0 +j      0.9        0.9      -0.0060

ELEMENT = "Line.MDV201_DA_8_930_A39751"
39734                              1         0.0 +j     -0.2        0.2      -0.0621
   TERMINAL TOTAL ......................     0.0 +j     -0.2        0.2      -0.0621
39751                              1        -0.0 +j      0.2        0.2      -0.0622
   TERMINAL TOTAL ......................    -0.0 +j      0.2        0.2      -0.0622

ELEMENT = "Line.MDV201_HN_2_394_ABC63658"
63657                              1        -0.3 +j     -4.9        4.9       0.0709
63657                              2         0.1 +j     -6.5        6.5      -0.0082
63657                              3         0.1 +j     -4.7        4.7      -0.0160
   TERMINAL TOTAL ......................    -0.2 +j    -16.1       16.1       0.0138
63658                              1         0.4 +j      4.9        5.0       0.0725
63658                              2        -0.1 +j      6.6        6.6      -0.0080
63658                              3        -0.1 +j      4.7        4.7      -0.0174
   TERMINAL TOTAL ......................     0.2 +j     16.2       16.2       0.0139

ELEMENT = "Line.MDV201_DA_8_687_B74448"
74445                              2        -0.0 +j     -0.6        0.6       0.0797
   TERMINAL TOTAL ......................    -0.0 +j     -0.6        0.6       0.0797
74448                              2         0.0 +j      0.6        0.6       0.0798
   TERMINAL TOTAL ......................     0.0 +j      0.6        0.6       0.0798

ELEMENT = "Line.MDV201_1012643FUSE"
1012641                            3        -0.0 +j     -0.0        0.0       0.0283
   TERMINAL TOTAL ......................    -0.0 +j     -0.0        0.0       0.0283
1012643                            3         0.0 +j      0.0        0.0       0.0283
   TERMINAL TOTAL ......................     0.0 +j      0.0        0.0       0.0283

ELEMENT = "Line.MDV201_HN_1_238_A39569"
39570                              1        -0.0 +j     -0.1        0.1       0.1761
   TERMINAL TOTAL ......................    -0.0 +j     -0.1        0.1       0.1761
39569                              1         0.0 +j      0.0        0.1       0.1778
   TERMINAL TOTAL ......................     0.0 +j      0.0        0.1       0.1778

ELEMENT = "Line.MDV201_14869FUSE"
14858                              1        -0.0 +j     -0.4        0.4       0.0099
   TERMINAL TOTAL ......................    -0.0 +j     -0.4        0.4       0.0099
14869                              1         0.0 +j      0.4        0.4       0.0099
   TERMINAL TOTAL ......................     0.0 +j      0.4        0.4       0.0099

ELEMENT = "Line.MDV201_HN_1_156_C89790"
89796                              3         0.0 +j     -0.1        0.1      -0.0237
   TERMINAL TOTAL ......................     0.0 +j     -0.1        0.1      -0.0237
89790                              3        -0.0 +j      0.1        0.1      -0.0239
   TERMINAL TOTAL ......................    -0.0 +j      0.1        0.1      -0.0239

ELEMENT = "Line.MDV201_HN_2_318_C28272"
28271                              3         0.0 +j     -0.0        0.0      -0.0939
   TERMINAL TOTAL ......................     0.0 +j     -0.0        0.0      -0.0939
28272                              3        -0.0 +j      0.0        0.0      -0.0951
   TERMINAL TOTAL ......................    -0.0 +j      0.0        0.0      -0.0951

ELEMENT = "Line.MDV201_C_1_140_ABC69477"
69478                              1        -0.0 +j     -0.0        0.0       0.1388
69478                              2         0.0 +j     -0.0        0.0      -0.0179
69478                              3         0.0 +j     -0.0        0.0      -0.1232
   TERMINAL TOTAL ......................     0.0 +j     -0.0        0.0      -0.0036
69477                              1         0.0 +j      0.0        0.0       0.1395
69477                              2        -0.0 +j      0.0        0.0      -0.0171
69477                              3        -0.0 +j      0.0        0.0      -0.1236
   TERMINAL TOTAL ......................    -0.0 +j      0.0        0.0      -0.0061

ELEMENT = "Line.MDV201_HN_2_948_C8176"
8175                               3         0.0 +j     -0.1        0.1      -0.0043
   TERMINAL TOTAL ......................     0.0 +j     -0.1        0.1      -0.0043
8176                               3        -0.0 +j      0.1        0.1      -0.0043
   TERMINAL TOTAL ......................    -0.0 +j      0.1        0.1      -0.0043

ELEMENT = "Line.MDV201_1144230FUSE"
8184                               1        -0.0 +j     -0.2        0.2       0.1304
   TERMINAL TOTAL ......................    -0.0 +j     -0.2        0.2       0.1304
1144230                            1         0.0 +j      0.2        0.2       0.1304
   TERMINAL TOTAL ......................     0.0 +j      0.2        0.2       0.1304

ELEMENT = "Line.MDV201_HN_2_105_ABC39582"
39595                              1        -0.1 +j     -0.6        0.6       0.1676
39595                              2         0.0 +j     -1.7        1.7      -0.0008
39595                              3         0.0 +j     -0.9        0.9      -0.0285
   TERMINAL TOTAL ......................    -0.1 +j     -3.1        3.1       0.0220
39582                              1         0.1 +j      0.6        0.6       0.1684
39582                              2        -0.0 +j      1.7        1.7      -0.0002
39582                              3        -0.0 +j      0.9        0.9      -0.0292
   TERMINAL TOTAL ......................     0.1 +j      3.2        3.2       0.0223

ELEMENT = "Line.MDV201_DA_8_691_B46386"
46385                              2        -0.0 +j     -0.4        0.4       0.0808
   TERMINAL TOTAL ......................    -0.0 +j     -0.4        0.4       0.0808
46386                              2         0.0 +j      0.4        0.4       0.0809
   TERMINAL TOTAL ......................     0.0 +j      0.4        0.4       0.0809

ELEMENT = "Line.MDV201_HN_2_457_C62244"
106884                             3        -0.0 +j     -0.5        0.5       0.0112
   TERMINAL TOTAL ......................    -0.0 +j     -0.5        0.5       0.0112
62244                              3         0.0 +j      0.5        0.5       0.0112
   TERMINAL TOTAL ......................     0.0 +j      0.5        0.5       0.0112

ELEMENT = "Line.C_1P038_SW"
1160493                            1        -0.1 +j     -0.5        0.5       0.1060
   TERMINAL TOTAL ......................    -0.1 +j     -0.5        0.5       0.1060
MDV201_8075ELB_INT                 1         0.1 +j      0.5        0.5       0.1060
   TERMINAL TOTAL ......................     0.1 +j      0.5        0.5       0.1060

ELEMENT = "Line.MDV201_8075ELB"
MDV201_8075ELB_INT                 1        -0.1 +j     -0.5        0.5       0.1060
   TERMINAL TOTAL ......................    -0.1 +j     -0.5        0.5       0.1060
8075                               1         0.1 +j      0.5        0.5       0.1060
   TERMINAL TOTAL ......................     0.1 +j      0.5        0.5       0.1060

ELEMENT = "Line.C_1P032_SW"
69460                              1        -0.0 +j     -0.1        0.1       0.1292
   TERMINAL TOTAL ......................    -0.0 +j     -0.1        0.1       0.1292
MDV201_107997ELB_INT               1         0.0 +j      0.1        0.1       0.1292
   TERMINAL TOTAL ......................     0.0 +j      0.1        0.1       0.1292

ELEMENT = "Line.MDV201_107997ELB"
MDV201_107997ELB_INT               1        -0.0 +j     -0.1        0.1       0.1292
   TERMINAL TOTAL ......................    -0.0 +j     -0.1        0.1       0.1292
107997                             1         0.0 +j      0.1        0.1       0.1292
   TERMINAL TOTAL ......................     0.0 +j      0.1        0.1       0.1292

ELEMENT = "Line.MDV201_HN_2_949_C8180"
8176                               3         0.0 +j     -0.1        0.1      -0.0043
   TERMINAL TOTAL ......................     0.0 +j     -0.1        0.1      -0.0043
8180                               3        -0.0 +j      0.1        0.1      -0.0043
   TERMINAL TOTAL ......................    -0.0 +j      0.1        0.1      -0.0043

ELEMENT = "Line.MDV201_C_1P024_A8100"
1160461                            1        -0.0 +j     -0.5        0.5       0.0935
   TERMINAL TOTAL ......................    -0.0 +j     -0.5        0.5       0.0935
8100                               1         0.0 +j      0.5        0.5       0.0954
   TERMINAL TOTAL ......................     0.0 +j      0.5        0.5       0.0954

ELEMENT = "Line.MDV201_HN_2_166_C33824"
39776                              3         0.0 +j     -0.1        0.1      -0.0186
   TERMINAL TOTAL ......................     0.0 +j     -0.1        0.1      -0.0186
33824                              3        -0.0 +j      0.1        0.1      -0.0186
   TERMINAL TOTAL ......................    -0.0 +j      0.1        0.1      -0.0186

ELEMENT = "Line.MDV201_HN_2_827_A14873"
1140227                            1        -0.0 +j     -0.1        0.1       0.0773
   TERMINAL TOTAL ......................    -0.0 +j     -0.1        0.1       0.0773
14873                              1         0.0 +j      0.1        0.1       0.0776
   TERMINAL TOTAL ......................     0.0 +j      0.1        0.1       0.0776

ELEMENT = "Line.HN_2P017_SW"
1160488                            2        -0.0 +j     -0.0        0.0       0.1558
   TERMINAL TOTAL ......................    -0.0 +j     -0.0        0.0       0.1558
MDV201_62249ELB_INT                2         0.0 +j      0.0        0.0       0.1558
   TERMINAL TOTAL ......................     0.0 +j      0.0        0.0       0.1558

ELEMENT = "Line.MDV201_62249ELB"
MDV201_62249ELB_INT                2        -0.0 +j     -0.0        0.0       0.1558
   TERMINAL TOTAL ......................    -0.0 +j     -0.0        0.0       0.1558
62249                              2         0.0 +j      0.0        0.0       0.1558
   TERMINAL TOTAL ......................     0.0 +j      0.0        0.0       0.1558

ELEMENT = "Line.MDV201_HN_2_397_B63634"
107106                             2        -0.0 +j     -0.4        0.4       0.0635
   TERMINAL TOTAL ......................    -0.0 +j     -0.4        0.4       0.0635
63634                              2         0.0 +j      0.4        0.4       0.0636
   TERMINAL TOTAL ......................     0.0 +j      0.4        0.4       0.0636

ELEMENT = "Line.MDV201_C_1P037_A1160467"
1160494                            1        -0.0 +j     -0.5        0.5       0.1044
   TERMINAL TOTAL ......................    -0.0 +j     -0.5        0.5       0.1044
1160467                            1         0.0 +j      0.5        0.5       0.1051
   TERMINAL TOTAL ......................     0.0 +j      0.5        0.5       0.1051

ELEMENT = "Line.MDV201_HN_2_280_A8185"
1144230                            1        -0.0 +j     -0.0        0.0       0.1217
   TERMINAL TOTAL ......................    -0.0 +j     -0.0        0.0       0.1217
8185                               1         0.0 +j      0.0        0.0       0.1230
   TERMINAL TOTAL ......................     0.0 +j      0.0        0.0       0.1230

ELEMENT = "Line.MDV201_HN_2_794_ABC791"
796                                1         0.0 +j     -6.3        6.3      -0.0045
796                                2        -0.1 +j     -6.7        6.7       0.0167
796                                3        -0.0 +j     -6.3        6.3       0.0053
   TERMINAL TOTAL ......................    -0.1 +j    -19.3       19.3       0.0061
791                                1        -0.0 +j      6.4        6.4      -0.0008
791                                2         0.1 +j      6.8        6.8       0.0158
791                                3         0.0 +j      6.4        6.4       0.0043
   TERMINAL TOTAL ......................     0.1 +j     19.6       19.6       0.0066

ELEMENT = "Line.MDV201_HN_2_677_C62303"
62306                              3        -0.0 +j     -0.1        0.1       0.0066
   TERMINAL TOTAL ......................    -0.0 +j     -0.1        0.1       0.0066
62303                              3         0.0 +j      0.1        0.1       0.0067
   TERMINAL TOTAL ......................     0.0 +j      0.1        0.1       0.0067

ELEMENT = "Line.MDV201_100478FUSE"
14839                              3         0.0 +j     -0.0        0.0      -0.0807
   TERMINAL TOTAL ......................     0.0 +j     -0.0        0.0      -0.0807
100478                             3        -0.0 +j      0.0        0.0      -0.0808
   TERMINAL TOTAL ......................    -0.0 +j      0.0        0.0      -0.0808

ELEMENT = "Line.MDV201_HN_2_115_ABC58446"
58441                              1        -0.0 +j     -0.1        0.1       0.1495
58441                              2        -0.0 +j     -0.1        0.1       0.0358
58441                              3         0.0 +j     -0.6        0.6      -0.0245
   TERMINAL TOTAL ......................    -0.0 +j     -0.8        0.8       0.0129
58446                              1         0.0 +j      0.1        0.1       0.1494
58446                              2         0.0 +j      0.1        0.1       0.0363
58446                              3        -0.0 +j      0.6        0.6      -0.0243
   TERMINAL TOTAL ......................     0.0 +j      0.8        0.8       0.0130

ELEMENT = "Line.MDV201_HN_2_895_B52515"
112112                             2         0.0 +j     -0.3        0.3      -0.0065
   TERMINAL TOTAL ......................     0.0 +j     -0.3        0.3      -0.0065
52515                              2        -0.0 +j      0.3        0.3      -0.0065
   TERMINAL TOTAL ......................    -0.0 +j      0.3        0.3      -0.0065

ELEMENT = "Line.MDV201_98795FUSE"
846                                1        -0.0 +j     -0.0        0.0       0.0528
846                                2        -0.0 +j     -0.0        0.0       0.0253
846                                3        -0.0 +j     -0.0        0.0       0.0055
   TERMINAL TOTAL ......................    -0.0 +j     -0.0        0.0       0.0279
98795                              1         0.0 +j      0.0        0.0       0.0525
98795                              2         0.0 +j      0.0        0.0       0.0255
98795                              3         0.0 +j      0.0        0.0       0.0059
   TERMINAL TOTAL ......................     0.0 +j      0.0        0.0       0.0280

ELEMENT = "Line.MDV201_HN_2_246_B39602"
39623                              2         0.0 +j     -0.1        0.1      -0.0066
   TERMINAL TOTAL ......................     0.0 +j     -0.1        0.1      -0.0066
39602                              2        -0.0 +j      0.1        0.1      -0.0066
   TERMINAL TOTAL ......................    -0.0 +j      0.1        0.1      -0.0066

ELEMENT = "Line.MDV201_DA_8_149_ABC56778"
56777                              1         0.0 +j     -0.2        0.2      -0.0178
56777                              2        -0.1 +j     -0.8        0.8       0.0752
56777                              3        -0.0 +j     -0.9        0.9       0.0144
   TERMINAL TOTAL ......................    -0.1 +j     -1.9        1.9       0.0364
56778                              1        -0.0 +j      0.2        0.2      -0.0181
56778                              2         0.1 +j      0.8        0.8       0.0761
56778                              3         0.0 +j      0.9        0.9       0.0140
   TERMINAL TOTAL ......................     0.1 +j      1.9        1.9       0.0365

ELEMENT = "Line.MDV201_HN_2_083_ABC62239"
44586                              1         0.1 +j     -2.0        2.0      -0.0707
44586                              2        -0.1 +j     -1.1        1.1       0.0930
...